<?xml version="1.0" encoding="UTF-8"?>

<!-- generated on 2023-05-03 12:21:16 by Eclipse SUMO netedit Version 1.16.0
<configuration xmlns:xsi="http://www.w3.org/2001/XMLSchema-instance" xsi:noNamespaceSchemaLocation="http://sumo.dlr.de/xsd/netconvertConfiguration.xsd">

    <input>
        <sumo-net-file value="100.net.xml"/>
    </input>

    <output>
        <output-file value="100.net.xml"/>
    </output>

    <processing>
        <geometry.min-radius.fix.railways value="false"/>
        <geometry.max-grade.fix value="false"/>
        <offset.disable-normalization value="true"/>
        <lefthand value="0"/>
    </processing>

    <junctions>
        <no-turnarounds value="true"/>
        <junctions.corner-detail value="5"/>
        <junctions.limit-turn-speed value="5.50"/>
        <rectangular-lane-cut value="0"/>
    </junctions>

    <pedestrian>
        <walkingareas value="0"/>
    </pedestrian>

</configuration>
-->

<net version="1.16" junctionCornerDetail="5" limitTurnSpeed="5.50" xmlns:xsi="http://www.w3.org/2001/XMLSchema-instance" xsi:noNamespaceSchemaLocation="http://sumo.dlr.de/xsd/net_file.xsd">

    <location netOffset="1724.94,3216.06" convBoundary="0.00,0.00,3810.99,4421.80" origBoundary="-1724.94,-3216.06,2086.04,1205.73" projParameter="!"/>

    <edge id=":1_0" function="internal">
        <lane id=":1_0_0" index="0" speed="5.98" length="9.08" shape="1723.47,3224.36 1723.06,3221.79 1721.93,3220.21 1720.08,3219.63 1717.51,3220.04"/>
    </edge>
    <edge id=":1_1" function="internal">
        <lane id=":1_1_0" index="0" speed="13.89" length="14.86" shape="1723.47,3224.36 1723.33,3220.63 1723.02,3216.94 1722.50,3213.28 1721.75,3209.63"/>
    </edge>
    <edge id=":1_2" function="internal">
        <lane id=":1_2_0" index="0" speed="8.09" length="4.36" shape="1723.47,3224.36 1723.97,3220.02"/>
    </edge>
    <edge id=":1_12" function="internal">
        <lane id=":1_12_0" index="0" speed="8.09" length="10.76" shape="1723.97,3220.02 1725.62,3216.97 1728.42,3215.21 1732.37,3214.74"/>
    </edge>
    <edge id=":1_3" function="internal">
        <lane id=":1_3_0" index="0" speed="6.62" length="9.76" shape="1732.25,3217.94 1729.77,3218.26 1728.01,3219.42 1726.98,3221.44 1726.67,3224.31"/>
    </edge>
    <edge id=":1_4" function="internal">
        <lane id=":1_4_0" index="0" speed="13.89" length="14.95" shape="1732.25,3217.94 1728.51,3217.98 1724.80,3218.36 1721.13,3219.06 1717.51,3220.04"/>
    </edge>
    <edge id=":1_5" function="internal">
        <lane id=":1_5_0" index="0" speed="9.03" length="14.51" shape="1732.25,3217.94 1728.38,3217.30 1725.33,3215.70 1723.13,3213.14 1721.75,3209.63"/>
    </edge>
    <edge id=":1_6" function="internal">
        <lane id=":1_6_0" index="0" speed="7.70" length="10.32" shape="1724.86,3208.88 1725.84,3211.36 1727.41,3213.16 1729.59,3214.29 1732.37,3214.74"/>
    </edge>
    <edge id=":1_7" function="internal">
        <lane id=":1_7_0" index="0" speed="13.89" length="15.56" shape="1724.86,3208.88 1725.63,3212.64 1726.17,3216.54 1726.52,3220.47 1726.67,3224.31"/>
    </edge>
    <edge id=":1_8" function="internal">
        <lane id=":1_8_0" index="0" speed="8.41" length="4.08" shape="1724.86,3208.88 1725.15,3212.68 1725.05,3212.94"/>
    </edge>
    <edge id=":1_13" function="internal">
        <lane id=":1_13_0" index="0" speed="8.41" length="10.92" shape="1725.05,3212.94 1724.02,3215.80 1721.47,3218.26 1717.51,3220.04"/>
    </edge>
    <edge id=":1_9" function="internal">
        <lane id=":1_9_0" index="0" speed="7.00" length="10.09" shape="1716.56,3216.98 1719.31,3215.77 1721.10,3214.14 1721.91,3212.09 1721.75,3209.63"/>
    </edge>
    <edge id=":1_10" function="internal">
        <lane id=":1_10_0" index="0" speed="13.89" length="16.03" shape="1716.56,3216.98 1720.35,3215.98 1724.39,3215.24 1728.47,3214.80 1732.37,3214.74"/>
    </edge>
    <edge id=":1_11" function="internal">
        <lane id=":1_11_0" index="0" speed="7.59" length="15.41" shape="1716.56,3216.98 1720.92,3216.28 1724.06,3217.27 1725.98,3219.95 1726.67,3224.31"/>
    </edge>
    <edge id=":1084_0" function="internal">
        <lane id=":1084_0_0" index="0" speed="7.59" length="7.40" shape="2663.52,1668.57 2661.95,1669.47 2660.73,1670.73 2659.88,1672.34 2659.38,1674.29"/>
    </edge>
    <edge id=":1084_1" function="internal">
        <lane id=":1084_1_0" index="0" speed="10.11" length="10.68" shape="2663.52,1668.57 2661.00,1669.32 2658.43,1669.47 2655.83,1669.02 2653.20,1667.98"/>
    </edge>
    <edge id=":1084_2" function="internal">
        <lane id=":1084_2_0" index="0" speed="8.77" length="7.92" shape="2654.64,1665.13 2656.61,1665.91 2658.55,1666.26 2660.44,1666.16 2662.29,1665.61"/>
    </edge>
    <edge id=":1084_3" function="internal">
        <lane id=":1084_3_0" index="0" speed="8.13" length="2.94" shape="2654.64,1665.13 2657.07,1666.77"/>
    </edge>
    <edge id=":1084_6" function="internal">
        <lane id=":1084_6_0" index="0" speed="8.13" length="8.18" shape="2657.07,1666.77 2658.67,1668.85 2659.44,1671.36 2659.38,1674.29"/>
    </edge>
    <edge id=":1084_4" function="internal">
        <lane id=":1084_4_0" index="0" speed="6.61" length="7.07" shape="2656.21,1673.82 2656.25,1671.95 2655.76,1670.35 2654.74,1669.03 2653.20,1667.98"/>
    </edge>
    <edge id=":1084_5" function="internal">
        <lane id=":1084_5_0" index="0" speed="9.02" length="10.69" shape="2656.21,1673.82 2656.93,1671.04 2658.19,1668.74 2659.97,1666.94 2662.29,1665.61"/>
    </edge>
    <edge id=":1108_0" function="internal">
        <lane id=":1108_0_0" index="0" speed="8.83" length="11.44" shape="2113.12,1539.89 2109.74,1540.84 2107.14,1542.22 2105.33,1544.01 2104.30,1546.22"/>
    </edge>
    <edge id=":1108_1" function="internal">
        <lane id=":1108_1_0" index="0" speed="7.50" length="15.87" shape="2113.12,1539.89 2108.50,1540.15 2105.49,1538.78 2104.07,1535.79 2104.24,1531.17"/>
    </edge>
    <edge id=":1108_2" function="internal">
        <lane id=":1108_2_0" index="0" speed="5.85" length="9.12" shape="2107.39,1531.74 2107.29,1534.39 2108.11,1536.11 2109.84,1536.90 2112.50,1536.75"/>
    </edge>
    <edge id=":1108_3" function="internal">
        <lane id=":1108_3_0" index="0" speed="13.89" length="14.81" shape="2107.39,1531.74 2104.30,1546.22"/>
    </edge>
    <edge id=":1108_4" function="internal">
        <lane id=":1108_4_0" index="0" speed="13.89" length="14.56" shape="2101.21,1545.41 2104.24,1531.17"/>
    </edge>
    <edge id=":1108_5" function="internal">
        <lane id=":1108_5_0" index="0" speed="10.04" length="3.37" shape="2101.21,1545.41 2102.58,1542.33"/>
    </edge>
    <edge id=":1108_6" function="internal">
        <lane id=":1108_6_0" index="0" speed="10.04" length="11.64" shape="2102.58,1542.33 2104.92,1539.86 2108.22,1538.00 2112.50,1536.75"/>
    </edge>
    <edge id=":1133_0" function="internal">
        <lane id=":1133_0_0" index="0" speed="5.92" length="9.10" shape="2946.87,2793.76 2944.60,2792.44 2942.68,2792.33 2941.12,2793.44 2939.90,2795.77"/>
    </edge>
    <edge id=":1133_1" function="internal">
        <lane id=":1133_1_0" index="0" speed="13.89" length="14.88" shape="2946.87,2793.76 2943.91,2791.49 2940.90,2789.33 2937.80,2787.29 2934.59,2785.39"/>
    </edge>
    <edge id=":1133_2" function="internal">
        <lane id=":1133_2_0" index="0" speed="13.89" length="15.39" shape="2936.15,2782.60 2939.42,2784.54 2942.67,2786.67 2945.83,2788.93 2948.86,2791.25"/>
    </edge>
    <edge id=":1133_3" function="internal">
        <lane id=":1133_3_0" index="0" speed="8.78" length="3.92" shape="2936.15,2782.60 2939.02,2784.89 2939.13,2785.10"/>
    </edge>
    <edge id=":1133_6" function="internal">
        <lane id=":1133_6_0" index="0" speed="8.78" length="11.16" shape="2939.13,2785.10 2940.60,2787.85 2940.89,2791.48 2939.90,2795.77"/>
    </edge>
    <edge id=":1133_4" function="internal">
        <lane id=":1133_4_0" index="0" speed="7.43" length="10.54" shape="2936.88,2794.70 2937.63,2791.61 2937.50,2789.02 2936.48,2786.95 2934.59,2785.39"/>
    </edge>
    <edge id=":1133_5" function="internal">
        <lane id=":1133_5_0" index="0" speed="7.54" length="15.62" shape="2936.88,2794.70 2938.97,2790.71 2941.66,2788.80 2944.96,2788.98 2948.86,2791.25"/>
    </edge>
    <edge id=":1149_0" function="internal">
        <lane id=":1149_0_0" index="0" speed="13.89" length="15.79" shape="1754.73,1432.65 1753.08,1436.16 1751.64,1439.92 1750.51,1443.78 1749.82,1447.59"/>
    </edge>
    <edge id=":1149_1" function="internal">
        <lane id=":1149_1_0" index="0" speed="11.17" length="3.88" shape="1754.73,1432.65 1752.48,1435.81"/>
    </edge>
    <edge id=":1149_2" function="internal">
        <lane id=":1149_2_0" index="0" speed="7.68" length="3.62" shape="1754.73,1432.65 1752.59,1435.57"/>
    </edge>
    <edge id=":1149_12" function="internal">
        <lane id=":1149_12_0" index="0" speed="11.17" length="15.83" shape="1752.48,1435.81 1751.93,1436.58 1748.24,1439.27 1743.65,1440.73 1738.16,1440.95"/>
    </edge>
    <edge id=":1149_13" function="internal">
        <lane id=":1149_13_0" index="0" speed="7.68" length="13.98" shape="1752.59,1435.57 1751.87,1436.55 1748.70,1437.78 1745.21,1436.35 1741.40,1432.26"/>
    </edge>
    <edge id=":1149_3" function="internal">
        <lane id=":1149_3_0" index="0" speed="6.06" length="10.40" shape="1743.98,1430.37 1746.31,1432.92 1748.40,1433.91 1750.26,1433.33 1751.88,1431.19"/>
    </edge>
    <edge id=":1149_4" function="internal">
        <lane id=":1149_4_0" index="0" speed="13.89" length="18.46" shape="1743.98,1430.37 1746.22,1434.06 1748.23,1438.63 1749.57,1443.37 1749.82,1447.59"/>
    </edge>
    <edge id=":1149_5" function="internal">
        <lane id=":1149_5_0" index="0" speed="7.38" length="18.29" shape="1743.98,1430.37 1746.78,1435.36 1746.74,1438.78 1743.87,1440.65 1738.16,1440.95"/>
    </edge>
    <edge id=":1149_6" function="internal">
        <lane id=":1149_6_0" index="0" speed="5.52" length="9.51" shape="1738.37,1437.76 1741.34,1437.60 1742.83,1436.63 1742.85,1434.85 1741.40,1432.26"/>
    </edge>
    <edge id=":1149_7" function="internal">
        <lane id=":1149_7_0" index="0" speed="10.10" length="15.97" shape="1738.37,1437.76 1742.89,1437.59 1746.64,1436.44 1749.64,1434.31 1751.88,1431.19"/>
    </edge>
    <edge id=":1149_8" function="internal">
        <lane id=":1149_8_0" index="0" speed="8.61" length="17.26" shape="1738.37,1437.76 1743.78,1438.69 1747.49,1440.63 1749.50,1443.60 1749.82,1447.59"/>
    </edge>
    <edge id=":1149_9" function="internal">
        <lane id=":1149_9_0" index="0" speed="7.26" length="11.95" shape="1746.64,1447.21 1746.36,1444.70 1744.86,1442.82 1742.12,1441.57 1738.16,1440.95"/>
    </edge>
    <edge id=":1149_10" function="internal">
        <lane id=":1149_10_0" index="0" speed="13.66" length="16.15" shape="1746.64,1447.21 1746.49,1443.35 1745.35,1439.38 1743.55,1435.60 1741.40,1432.26"/>
    </edge>
    <edge id=":1149_11" function="internal">
        <lane id=":1149_11_0" index="0" speed="13.89" length="16.93" shape="1746.64,1447.21 1747.39,1443.24 1748.62,1439.00 1750.18,1434.87 1751.88,1431.19"/>
    </edge>
    <edge id=":1371_0" function="internal">
        <lane id=":1371_0_0" index="0" speed="10.55" length="9.24" shape="3205.53,3002.18 3205.04,2999.50 3204.40,2997.69 3203.26,2996.17 3201.21,2994.42"/>
    </edge>
    <edge id=":1371_1" function="internal">
        <lane id=":1371_1_0" index="0" speed="8.08" length="3.37" shape="3205.53,3002.18 3205.43,2999.00 3205.49,2998.82"/>
    </edge>
    <edge id=":1371_6" function="internal">
        <lane id=":1371_6_0" index="0" speed="8.08" length="8.56" shape="3205.49,2998.82 3206.28,2996.35 3208.07,2994.22 3210.81,2992.61"/>
    </edge>
    <edge id=":1371_2" function="internal">
        <lane id=":1371_2_0" index="0" speed="6.57" length="7.59" shape="3212.05,2995.56 3210.30,2996.59 3209.16,2997.94 3208.62,2999.63 3208.69,3001.65"/>
    </edge>
    <edge id=":1371_3" function="internal">
        <lane id=":1371_3_0" index="0" speed="9.11" length="11.46" shape="3212.05,2995.56 3209.07,2996.45 3206.27,2996.56 3203.65,2995.88 3201.21,2994.42"/>
    </edge>
    <edge id=":1371_4" function="internal">
        <lane id=":1371_4_0" index="0" speed="7.72" length="8.04" shape="3203.19,2991.90 3204.88,2992.90 3206.71,2993.35 3208.69,2993.26 3210.81,2992.61"/>
    </edge>
    <edge id=":1371_5" function="internal">
        <lane id=":1371_5_0" index="0" speed="11.75" length="11.56" shape="3203.19,2991.90 3205.59,2994.04 3207.10,2996.09 3208.03,2998.48 3208.69,3001.65"/>
    </edge>
    <edge id=":1375_0" function="internal">
        <lane id=":1375_0_0" index="0" speed="9.22" length="12.26" shape="2159.81,1283.41 2156.18,1284.80 2153.46,1286.49 2151.65,1288.49 2150.75,1290.79"/>
    </edge>
    <edge id=":1375_1" function="internal">
        <lane id=":1375_1_0" index="0" speed="12.12" length="18.78" shape="2159.81,1283.41 2154.98,1284.33 2150.42,1284.06 2146.14,1282.62 2142.14,1280.01"/>
    </edge>
    <edge id=":1375_2" function="internal">
        <lane id=":1375_2_0" index="0" speed="7.41" length="16.79" shape="2159.81,1283.41 2154.84,1284.22 2151.68,1283.09 2150.34,1280.01 2150.82,1275.00"/>
    </edge>
    <edge id=":1375_3" function="internal">
        <lane id=":1375_3_0" index="0" speed="5.67" length="9.24" shape="2153.94,1275.72 2153.68,1278.48 2154.41,1280.17 2156.15,1280.79 2158.89,1280.35"/>
    </edge>
    <edge id=":1375_4" function="internal">
        <lane id=":1375_4_0" index="0" speed="13.89" length="15.40" shape="2153.94,1275.72 2150.75,1290.79"/>
    </edge>
    <edge id=":1375_5" function="internal">
        <lane id=":1375_5_0" index="0" speed="7.48" length="4.73" shape="2153.94,1275.72 2152.28,1280.14"/>
    </edge>
    <edge id=":1375_12" function="internal">
        <lane id=":1375_12_0" index="0" speed="7.48" length="11.92" shape="2152.28,1280.14 2152.18,1280.41 2149.62,1282.69 2146.28,1282.56 2142.14,1280.01"/>
    </edge>
    <edge id=":1375_6" function="internal">
        <lane id=":1375_6_0" index="0" speed="5.80" length="9.43" shape="2144.18,1277.54 2146.50,1278.96 2148.38,1279.01 2149.82,1277.69 2150.82,1275.00"/>
    </edge>
    <edge id=":1375_7" function="internal">
        <lane id=":1375_7_0" index="0" speed="11.09" length="15.62" shape="2144.18,1277.54 2147.50,1279.71 2151.06,1280.90 2154.86,1281.12 2158.89,1280.35"/>
    </edge>
    <edge id=":1375_8" function="internal">
        <lane id=":1375_8_0" index="0" speed="10.57" length="15.49" shape="2144.18,1277.54 2147.51,1280.79 2149.72,1284.09 2150.80,1287.42 2150.75,1290.79"/>
    </edge>
    <edge id=":1375_9" function="internal">
        <lane id=":1375_9_0" index="0" speed="9.39" length="12.11" shape="2147.60,1290.22 2147.59,1287.73 2146.68,1285.19 2144.86,1282.62 2142.14,1280.01"/>
    </edge>
    <edge id=":1375_10" function="internal">
        <lane id=":1375_10_0" index="0" speed="13.89" length="15.56" shape="2147.60,1290.22 2150.82,1275.00"/>
    </edge>
    <edge id=":1375_11" function="internal">
        <lane id=":1375_11_0" index="0" speed="10.39" length="3.75" shape="2147.60,1290.22 2148.77,1287.04 2149.00,1286.76"/>
    </edge>
    <edge id=":1375_13" function="internal">
        <lane id=":1375_13_0" index="0" speed="10.39" length="12.02" shape="2149.00,1286.76 2151.04,1284.34 2154.41,1282.11 2158.89,1280.35"/>
    </edge>
    <edge id=":1381_0" function="internal">
        <lane id=":1381_0_0" index="0" speed="6.09" length="9.06" shape="1930.43,1104.37 1928.24,1103.03 1926.29,1102.83 1924.57,1103.78 1923.08,1105.87"/>
    </edge>
    <edge id=":1381_1" function="internal">
        <lane id=":1381_1_0" index="0" speed="13.89" length="15.56" shape="1930.43,1104.37 1927.44,1101.97 1924.28,1099.60 1921.06,1097.34 1917.85,1095.23"/>
    </edge>
    <edge id=":1381_2" function="internal">
        <lane id=":1381_2_0" index="0" speed="9.52" length="15.78" shape="1930.43,1104.37 1927.56,1101.29 1926.00,1097.90 1925.74,1094.21 1926.79,1090.21"/>
    </edge>
    <edge id=":1381_3" function="internal">
        <lane id=":1381_3_0" index="0" speed="8.27" length="11.69" shape="1929.75,1091.42 1928.98,1094.38 1929.17,1097.11 1930.34,1099.62 1932.47,1101.90"/>
    </edge>
    <edge id=":1381_4" function="internal">
        <lane id=":1381_4_0" index="0" speed="13.89" length="15.91" shape="1929.75,1091.42 1923.08,1105.87"/>
    </edge>
    <edge id=":1381_5" function="internal">
        <lane id=":1381_5_0" index="0" speed="7.72" length="4.58" shape="1929.75,1091.42 1927.63,1095.03 1927.30,1095.25"/>
    </edge>
    <edge id=":1381_12" function="internal">
        <lane id=":1381_12_0" index="0" speed="7.72" length="10.31" shape="1927.30,1095.25 1924.93,1096.87 1921.68,1096.94 1917.85,1095.23"/>
    </edge>
    <edge id=":1381_6" function="internal">
        <lane id=":1381_6_0" index="0" speed="6.16" length="9.05" shape="1919.56,1092.53 1921.88,1093.56 1923.86,1093.52 1925.50,1092.40 1926.79,1090.21"/>
    </edge>
    <edge id=":1381_7" function="internal">
        <lane id=":1381_7_0" index="0" speed="13.89" length="15.97" shape="1919.56,1092.53 1922.82,1094.67 1926.16,1097.02 1929.43,1099.47 1932.47,1101.90"/>
    </edge>
    <edge id=":1381_8" function="internal">
        <lane id=":1381_8_0" index="0" speed="8.60" length="15.45" shape="1919.56,1092.53 1922.72,1095.21 1924.36,1098.33 1924.48,1101.88 1923.08,1105.87"/>
    </edge>
    <edge id=":1381_9" function="internal">
        <lane id=":1381_9_0" index="0" speed="7.22" length="10.61" shape="1920.23,1104.40 1921.20,1101.66 1921.13,1099.22 1920.01,1097.07 1917.85,1095.23"/>
    </edge>
    <edge id=":1381_10" function="internal">
        <lane id=":1381_10_0" index="0" speed="13.89" length="15.64" shape="1920.23,1104.40 1926.79,1090.21"/>
    </edge>
    <edge id=":1381_11" function="internal">
        <lane id=":1381_11_0" index="0" speed="7.67" length="3.85" shape="1920.23,1104.40 1922.47,1101.26"/>
    </edge>
    <edge id=":1381_13" function="internal">
        <lane id=":1381_13_0" index="0" speed="7.67" length="11.23" shape="1922.47,1101.26 1922.71,1100.92 1925.58,1099.35 1928.83,1099.67 1932.47,1101.90"/>
    </edge>
    <edge id=":1383_0" function="internal">
        <lane id=":1383_0_0" index="0" speed="6.44" length="9.03" shape="1417.60,1419.48 1415.12,1419.67 1413.32,1420.61 1412.20,1422.30 1411.75,1424.75"/>
    </edge>
    <edge id=":1383_1" function="internal">
        <lane id=":1383_1_0" index="0" speed="13.89" length="14.17" shape="1417.60,1419.48 1413.99,1419.19 1410.55,1418.77 1407.14,1418.21 1403.59,1417.47"/>
    </edge>
    <edge id=":1383_2" function="internal">
        <lane id=":1383_2_0" index="0" speed="13.89" length="13.66" shape="1404.31,1414.35 1407.77,1415.08 1411.02,1415.62 1414.29,1416.00 1417.82,1416.29"/>
    </edge>
    <edge id=":1383_3" function="internal">
        <lane id=":1383_3_0" index="0" speed="8.56" length="3.73" shape="1404.31,1414.35 1407.69,1415.67 1407.76,1415.74"/>
    </edge>
    <edge id=":1383_6" function="internal">
        <lane id=":1383_6_0" index="0" speed="8.56" length="10.32" shape="1407.76,1415.74 1410.05,1417.84 1411.41,1420.87 1411.75,1424.75"/>
    </edge>
    <edge id=":1383_4" function="internal">
        <lane id=":1383_4_0" index="0" speed="7.17" length="9.57" shape="1408.56,1424.63 1408.33,1421.94 1407.43,1419.86 1405.85,1418.37 1403.59,1417.47"/>
    </edge>
    <edge id=":1383_5" function="internal">
        <lane id=":1383_5_0" index="0" speed="7.95" length="14.30" shape="1408.56,1424.63 1409.26,1420.76 1411.04,1418.08 1413.89,1416.59 1417.82,1416.29"/>
    </edge>
    <edge id=":14_0" function="internal">
        <lane id=":14_0_0" index="0" speed="13.89" length="12.75" shape="1530.51,2612.77 1529.00,2609.73 1527.39,2607.24 1525.50,2604.93 1523.14,2602.47"/>
    </edge>
    <edge id=":14_1" function="internal">
        <lane id=":14_1_0" index="0" speed="9.58" length="3.35" shape="1530.51,2612.77 1529.60,2609.55"/>
    </edge>
    <edge id=":14_6" function="internal">
        <lane id=":14_6_0" index="0" speed="9.58" length="10.53" shape="1529.60,2609.55 1529.75,2606.34 1530.95,2603.14 1533.21,2599.96"/>
    </edge>
    <edge id=":14_2" function="internal">
        <lane id=":14_2_0" index="0" speed="8.29" length="10.23" shape="1535.61,2602.07 1533.90,2604.46 1532.96,2606.83 1532.80,2609.17 1533.43,2611.48"/>
    </edge>
    <edge id=":14_3" function="internal">
        <lane id=":14_3_0" index="0" speed="7.88" length="14.46" shape="1535.61,2602.07 1532.58,2604.67 1529.49,2605.61 1526.34,2604.87 1523.14,2602.47"/>
    </edge>
    <edge id=":14_4" function="internal">
        <lane id=":14_4_0" index="0" speed="6.36" length="9.04" shape="1525.41,2600.21 1527.41,2601.71 1529.38,2602.17 1531.31,2601.59 1533.21,2599.96"/>
    </edge>
    <edge id=":14_5" function="internal">
        <lane id=":14_5_0" index="0" speed="13.89" length="13.91" shape="1525.41,2600.21 1527.87,2602.82 1529.98,2605.46 1531.82,2608.29 1533.43,2611.48"/>
    </edge>
    <edge id=":1593_0" function="internal">
        <lane id=":1593_0_0" index="0" speed="7.44" length="9.82" shape="1024.26,1708.34 1021.49,1707.93 1019.14,1708.28 1017.22,1709.41 1015.72,1711.31"/>
    </edge>
    <edge id=":1593_1" function="internal">
        <lane id=":1593_1_0" index="0" speed="7.89" length="14.45" shape="1024.26,1708.34 1020.59,1706.77 1018.39,1704.40 1017.66,1701.26 1018.40,1697.33"/>
    </edge>
    <edge id=":1593_2" function="internal">
        <lane id=":1593_2_0" index="0" speed="6.37" length="9.04" shape="1021.43,1698.37 1020.96,1700.82 1021.42,1702.79 1022.80,1704.27 1025.09,1705.25"/>
    </edge>
    <edge id=":1593_3" function="internal">
        <lane id=":1593_3_0" index="0" speed="13.89" length="14.16" shape="1021.43,1698.37 1020.20,1701.77 1018.89,1704.98 1017.42,1708.11 1015.72,1711.31"/>
    </edge>
    <edge id=":1593_4" function="internal">
        <lane id=":1593_4_0" index="0" speed="13.89" length="13.58" shape="1012.93,1709.73 1014.59,1706.62 1015.98,1703.67 1017.21,1700.65 1018.40,1697.33"/>
    </edge>
    <edge id=":1593_5" function="internal">
        <lane id=":1593_5_0" index="0" speed="8.81" length="3.55" shape="1012.93,1709.73 1015.12,1706.93"/>
    </edge>
    <edge id=":1593_6" function="internal">
        <lane id=":1593_6_0" index="0" speed="8.81" length="10.54" shape="1015.12,1706.93 1017.87,1705.25 1021.19,1704.69 1025.09,1705.25"/>
    </edge>
    <edge id=":1614_0" function="internal">
        <lane id=":1614_0_0" index="0" speed="5.91" length="9.10" shape="3010.39,3421.83 3010.01,3419.23 3008.90,3417.66 3007.05,3417.13 3004.47,3417.64"/>
    </edge>
    <edge id=":1614_1" function="internal">
        <lane id=":1614_1_0" index="0" speed="13.89" length="15.17" shape="3010.39,3421.83 3010.12,3418.06 3009.34,3414.33 3008.06,3410.74 3006.28,3407.42"/>
    </edge>
    <edge id=":1614_2" function="internal">
        <lane id=":1614_2_0" index="0" speed="10.91" length="15.92" shape="3010.39,3421.83 3010.80,3417.46 3012.08,3413.74 3014.22,3410.68 3017.22,3408.26"/>
    </edge>
    <edge id=":1614_3" function="internal">
        <lane id=":1614_3_0" index="0" speed="9.76" length="12.63" shape="3018.89,3410.99 3016.56,3412.88 3014.90,3415.32 3013.91,3418.30 3013.59,3421.82"/>
    </edge>
    <edge id=":1614_4" function="internal">
        <lane id=":1614_4_0" index="0" speed="13.89" length="15.90" shape="3018.89,3410.99 3015.50,3412.90 3011.85,3414.67 3008.11,3416.27 3004.47,3417.64"/>
    </edge>
    <edge id=":1614_5" function="internal">
        <lane id=":1614_5_0" index="0" speed="8.23" length="4.17" shape="3018.89,3410.99 3015.31,3412.47 3015.01,3412.46"/>
    </edge>
    <edge id=":1614_12" function="internal">
        <lane id=":1614_12_0" index="0" speed="8.23" length="10.69" shape="3015.01,3412.46 3012.02,3412.36 3009.01,3410.68 3006.28,3407.42"/>
    </edge>
    <edge id=":1614_6" function="internal">
        <lane id=":1614_6_0" index="0" speed="6.79" length="9.78" shape="3008.98,3405.69 3010.80,3407.90 3012.78,3409.07 3014.92,3409.18 3017.22,3408.26"/>
    </edge>
    <edge id=":1614_7" function="internal">
        <lane id=":1614_7_0" index="0" speed="13.89" length="16.94" shape="3008.98,3405.69 3010.83,3409.29 3012.29,3413.46 3013.24,3417.79 3013.59,3421.82"/>
    </edge>
    <edge id=":1614_8" function="internal">
        <lane id=":1614_8_0" index="0" speed="7.72" length="15.49" shape="3008.98,3405.69 3010.73,3409.63 3010.56,3412.93 3008.47,3415.60 3004.47,3417.64"/>
    </edge>
    <edge id=":1614_9" function="internal">
        <lane id=":1614_9_0" index="0" speed="6.16" length="9.40" shape="3003.42,3414.62 3005.89,3413.37 3007.19,3411.76 3007.32,3409.77 3006.28,3407.42"/>
    </edge>
    <edge id=":1614_10" function="internal">
        <lane id=":1614_10_0" index="0" speed="13.89" length="15.22" shape="3003.42,3414.62 3006.97,3413.30 3010.49,3411.80 3013.93,3410.12 3017.22,3408.26"/>
    </edge>
    <edge id=":1614_11" function="internal">
        <lane id=":1614_11_0" index="0" speed="7.54" length="4.26" shape="3003.42,3414.62 3007.60,3413.80"/>
    </edge>
    <edge id=":1614_13" function="internal">
        <lane id=":1614_13_0" index="0" speed="7.54" length="11.38" shape="3007.60,3413.80 3007.85,3413.75 3011.03,3414.66 3012.94,3417.35 3013.59,3421.82"/>
    </edge>
    <edge id=":176_0" function="internal">
        <lane id=":176_0_0" index="0" speed="7.20" length="9.63" shape="1708.11,2412.86 1705.85,2411.98 1703.66,2412.00 1701.56,2412.92 1699.53,2414.74"/>
    </edge>
    <edge id=":176_1" function="internal">
        <lane id=":176_1_0" index="0" speed="13.89" length="14.20" shape="1708.11,2412.86 1705.01,2410.98 1702.11,2409.07 1699.29,2407.04 1696.42,2404.82"/>
    </edge>
    <edge id=":176_2" function="internal">
        <lane id=":176_2_0" index="0" speed="13.89" length="13.73" shape="1698.41,2402.32 1701.22,2404.49 1703.91,2406.43 1706.67,2408.26 1709.71,2410.09"/>
    </edge>
    <edge id=":176_3" function="internal">
        <lane id=":176_3_0" index="0" speed="7.92" length="3.96" shape="1698.41,2402.32 1701.13,2405.20"/>
    </edge>
    <edge id=":176_6" function="internal">
        <lane id=":176_6_0" index="0" speed="7.92" length="10.41" shape="1701.13,2405.20 1702.23,2408.24 1701.69,2411.41 1699.53,2414.74"/>
    </edge>
    <edge id=":176_4" function="internal">
        <lane id=":176_4_0" index="0" speed="6.41" length="9.04" shape="1697.12,2412.63 1698.48,2410.54 1698.82,2408.54 1698.13,2406.64 1696.42,2404.82"/>
    </edge>
    <edge id=":176_5" function="internal">
        <lane id=":176_5_0" index="0" speed="8.60" length="14.09" shape="1697.12,2412.63 1700.05,2410.02 1703.13,2408.73 1706.35,2408.75 1709.71,2410.09"/>
    </edge>
    <edge id=":2_0" function="internal">
        <lane id=":2_0_0" index="0" speed="13.89" length="13.24" shape="1636.70,2855.44 1635.84,2852.07 1634.92,2849.07 1633.84,2846.12 1632.49,2842.91"/>
    </edge>
    <edge id=":2_1" function="internal">
        <lane id=":2_1_0" index="0" speed="8.01" length="3.77" shape="1636.70,2855.44 1636.35,2851.69"/>
    </edge>
    <edge id=":2_6" function="internal">
        <lane id=":2_6_0" index="0" speed="8.01" length="10.05" shape="1636.35,2851.69 1637.26,2848.68 1639.44,2846.42 1642.89,2844.91"/>
    </edge>
    <edge id=":2_2" function="internal">
        <lane id=":2_2_0" index="0" speed="6.51" length="8.79" shape="1643.75,2847.99 1641.56,2848.96 1640.17,2850.39 1639.59,2852.31 1639.82,2854.69"/>
    </edge>
    <edge id=":2_3" function="internal">
        <lane id=":2_3_0" index="0" speed="8.31" length="13.68" shape="1643.75,2847.99 1640.04,2848.52 1636.93,2847.84 1634.41,2845.98 1632.49,2842.91"/>
    </edge>
    <edge id=":2_4" function="internal">
        <lane id=":2_4_0" index="0" speed="6.86" length="9.04" shape="1635.42,2841.62 1636.68,2843.62 1638.35,2844.83 1640.42,2845.27 1642.89,2844.91"/>
    </edge>
    <edge id=":2_5" function="internal">
        <lane id=":2_5_0" index="0" speed="13.89" length="13.81" shape="1635.42,2841.62 1636.80,2844.90 1637.94,2848.05 1638.92,2851.24 1639.82,2854.69"/>
    </edge>
    <edge id=":2032_0" function="internal">
        <lane id=":2032_0_0" index="0" speed="5.80" length="9.14" shape="1636.41,918.03 1633.97,916.92 1632.08,917.04 1630.75,918.39 1629.99,920.96"/>
    </edge>
    <edge id=":2032_1" function="internal">
        <lane id=":2032_1_0" index="0" speed="13.89" length="17.62" shape="1636.41,918.03 1632.97,915.69 1629.25,912.90 1625.65,909.95 1622.58,907.15"/>
    </edge>
    <edge id=":2032_2" function="internal">
        <lane id=":2032_2_0" index="0" speed="8.88" length="5.09" shape="1636.41,918.03 1633.62,915.27 1633.11,914.21"/>
    </edge>
    <edge id=":2032_12" function="internal">
        <lane id=":2032_12_0" index="0" speed="8.88" length="11.04" shape="1633.11,914.21 1631.79,911.48 1631.16,907.37 1631.96,903.61"/>
    </edge>
    <edge id=":2032_3" function="internal">
        <lane id=":2032_3_0" index="0" speed="7.75" length="12.06" shape="1634.85,904.99 1633.91,908.02 1634.15,910.75 1635.55,913.18 1638.12,915.32"/>
    </edge>
    <edge id=":2032_4" function="internal">
        <lane id=":2032_4_0" index="0" speed="13.89" length="16.74" shape="1634.85,904.99 1633.29,908.69 1631.89,912.81 1630.76,917.01 1629.99,920.96"/>
    </edge>
    <edge id=":2032_5" function="internal">
        <lane id=":2032_5_0" index="0" speed="7.54" length="15.63" shape="1634.85,904.99 1632.35,908.75 1629.47,910.36 1626.21,909.83 1622.58,907.15"/>
    </edge>
    <edge id=":2032_6" function="internal">
        <lane id=":2032_6_0" index="0" speed="5.91" length="9.10" shape="1624.82,904.87 1626.93,906.42 1628.83,906.73 1630.51,905.79 1631.96,903.61"/>
    </edge>
    <edge id=":2032_7" function="internal">
        <lane id=":2032_7_0" index="0" speed="13.89" length="16.94" shape="1624.82,904.87 1627.81,907.60 1631.22,910.41 1634.76,913.05 1638.12,915.32"/>