<?xml version="1.0" encoding="UTF-8"?>

<!-- generated on 2022-01-15 18:03:49 by Eclipse SUMO sumo Version 1.9.2
-->

<configuration xmlns:xsi="http://www.w3.org/2001/XMLSchema-instance" xsi:noNamespaceSchemaLocation="http://sumo.dlr.de/xsd/sumoConfiguration.xsd">

    <input>
        <net-file value="100.net.xml"/>
        <route-files value="small.rou.xml"/>
    </input>

    <processing>
        <ignore-route-errors value="true"/>
        <time-to-teleport value="-1"/>
    </processing>

</configuration>
