<?xml version="1.0" encoding="UTF-8"?>

<!-- generated on 2023-05-03 12:58:52 by Eclipse SUMO netedit Version 1.16.0
<configuration xmlns:xsi="http://www.w3.org/2001/XMLSchema-instance" xsi:noNamespaceSchemaLocation="http://sumo.dlr.de/xsd/netconvertConfiguration.xsd">

    <input>
        <sumo-net-file value="200.net.xml"/>
    </input>

    <output>
        <output-file value="200.net.xml"/>
    </output>

    <processing>
        <geometry.min-radius.fix.railways value="false"/>
        <geometry.max-grade.fix value="false"/>
        <offset.disable-normalization value="true"/>
        <lefthand value="0"/>
    </processing>

    <junctions>
        <no-turnarounds value="true"/>
        <junctions.corner-detail value="5"/>
        <junctions.limit-turn-speed value="5.50"/>
        <rectangular-lane-cut value="0"/>
    </junctions>

    <pedestrian>
        <walkingareas value="0"/>
    </pedestrian>

</configuration>
-->

<net version="1.16" junctionCornerDetail="5" limitTurnSpeed="5.50" xmlns:xsi="http://www.w3.org/2001/XMLSchema-instance" xsi:noNamespaceSchemaLocation="http://sumo.dlr.de/xsd/net_file.xsd">

    <location netOffset="1907.69,2140.21" convBoundary="0.00,0.00,3908.58,4526.62" origBoundary="-1907.69,-2140.21,2269.94,2386.41" projParameter="!"/>

    <edge id=":1_0" function="internal">
        <lane id=":1_0_0" index="0" speed="5.98" length="9.08" shape="1906.22,2148.51 1905.81,2145.94 1904.68,2144.36 1902.83,2143.78 1900.26,2144.19"/>
    </edge>
    <edge id=":1_1" function="internal">
        <lane id=":1_1_0" index="0" speed="13.89" length="14.86" shape="1906.22,2148.51 1906.08,2144.78 1905.77,2141.09 1905.25,2137.43 1904.50,2133.78"/>
    </edge>
    <edge id=":1_2" function="internal">
        <lane id=":1_2_0" index="0" speed="8.09" length="4.36" shape="1906.22,2148.51 1906.72,2144.17"/>
    </edge>
    <edge id=":1_12" function="internal">
        <lane id=":1_12_0" index="0" speed="8.09" length="10.76" shape="1906.72,2144.17 1908.37,2141.12 1911.17,2139.36 1915.12,2138.89"/>
    </edge>
    <edge id=":1_3" function="internal">
        <lane id=":1_3_0" index="0" speed="6.62" length="9.76" shape="1915.00,2142.09 1912.52,2142.41 1910.76,2143.57 1909.73,2145.59 1909.42,2148.46"/>
    </edge>
    <edge id=":1_4" function="internal">
        <lane id=":1_4_0" index="0" speed="13.89" length="14.95" shape="1915.00,2142.09 1911.26,2142.13 1907.55,2142.51 1903.88,2143.21 1900.26,2144.19"/>
    </edge>
    <edge id=":1_5" function="internal">
        <lane id=":1_5_0" index="0" speed="9.03" length="14.51" shape="1915.00,2142.09 1911.13,2141.45 1908.08,2139.85 1905.88,2137.29 1904.50,2133.78"/>
    </edge>
    <edge id=":1_6" function="internal">
        <lane id=":1_6_0" index="0" speed="7.70" length="10.32" shape="1907.61,2133.03 1908.59,2135.51 1910.16,2137.31 1912.34,2138.44 1915.12,2138.89"/>
    </edge>
    <edge id=":1_7" function="internal">
        <lane id=":1_7_0" index="0" speed="13.89" length="15.56" shape="1907.61,2133.03 1908.38,2136.79 1908.92,2140.69 1909.27,2144.62 1909.42,2148.46"/>
    </edge>
    <edge id=":1_8" function="internal">
        <lane id=":1_8_0" index="0" speed="8.41" length="4.08" shape="1907.61,2133.03 1907.90,2136.83 1907.80,2137.09"/>
    </edge>
    <edge id=":1_13" function="internal">
        <lane id=":1_13_0" index="0" speed="8.41" length="10.92" shape="1907.80,2137.09 1906.77,2139.95 1904.22,2142.41 1900.26,2144.19"/>
    </edge>
    <edge id=":1_9" function="internal">
        <lane id=":1_9_0" index="0" speed="7.00" length="10.09" shape="1899.31,2141.13 1902.06,2139.92 1903.85,2138.29 1904.66,2136.24 1904.50,2133.78"/>
    </edge>
    <edge id=":1_10" function="internal">
        <lane id=":1_10_0" index="0" speed="13.89" length="16.03" shape="1899.31,2141.13 1903.10,2140.13 1907.14,2139.39 1911.22,2138.95 1915.12,2138.89"/>
    </edge>
    <edge id=":1_11" function="internal">
        <lane id=":1_11_0" index="0" speed="7.59" length="15.41" shape="1899.31,2141.13 1903.67,2140.43 1906.81,2141.42 1908.73,2144.10 1909.42,2148.46"/>
    </edge>
    <edge id=":10_0" function="internal">
        <lane id=":10_0_0" index="0" speed="7.06" length="10.95" shape="1633.61,2234.76 1630.82,2232.67 1628.29,2231.79 1626.03,2232.10 1624.03,2233.61"/>
    </edge>
    <edge id=":10_1" function="internal">
        <lane id=":10_1_0" index="0" speed="13.89" length="17.54" shape="1633.61,2234.76 1630.79,2231.70 1628.12,2227.90 1625.97,2223.81 1624.72,2219.89"/>
    </edge>
    <edge id=":10_2" function="internal">
        <lane id=":10_2_0" index="0" speed="7.40" length="16.83" shape="1633.61,2234.76 1630.37,2230.87 1629.73,2227.58 1631.71,2224.87 1636.31,2222.75"/>
    </edge>
    <edge id=":10_3" function="internal">
        <lane id=":10_3_0" index="0" speed="5.66" length="9.24" shape="1637.26,2225.80 1634.73,2226.97 1633.65,2228.46 1633.99,2230.27 1635.78,2232.40"/>
    </edge>
    <edge id=":10_4" function="internal">
        <lane id=":10_4_0" index="0" speed="13.89" length="15.53" shape="1637.26,2225.80 1633.64,2227.12 1630.09,2228.86 1626.82,2231.02 1624.03,2233.61"/>
    </edge>
    <edge id=":10_5" function="internal">
        <lane id=":10_5_0" index="0" speed="8.17" length="3.91" shape="1637.26,2225.80 1633.41,2226.51"/>
    </edge>
    <edge id=":10_12" function="internal">
        <lane id=":10_12_0" index="0" speed="8.17" length="12.32" shape="1633.41,2226.51 1632.40,2226.70 1628.69,2226.01 1626.13,2223.74 1624.72,2219.89"/>
    </edge>
    <edge id=":10_6" function="internal">
        <lane id=":10_6_0" index="0" speed="6.72" length="10.61" shape="1627.87,2219.32 1628.78,2221.68 1630.49,2223.04 1633.00,2223.39 1636.31,2222.75"/>
    </edge>
    <edge id=":10_7" function="internal">
        <lane id=":10_7_0" index="0" speed="13.89" length="15.52" shape="1627.87,2219.32 1628.96,2222.97 1630.77,2226.44 1633.11,2229.62 1635.78,2232.40"/>
    </edge>
    <edge id=":10_8" function="internal">
        <lane id=":10_8_0" index="0" speed="11.68" length="15.32" shape="1627.87,2219.32 1628.19,2223.32 1627.65,2227.03 1626.27,2230.46 1624.03,2233.61"/>
    </edge>
    <edge id=":10_9" function="internal">
        <lane id=":10_9_0" index="0" speed="10.56" length="12.43" shape="1621.63,2231.49 1623.44,2228.94 1624.55,2226.16 1624.98,2223.14 1624.72,2219.89"/>
    </edge>
    <edge id=":10_10" function="internal">
        <lane id=":10_10_0" index="0" speed="13.89" length="17.24" shape="1621.63,2231.49 1624.65,2228.75 1628.42,2226.27 1632.47,2224.21 1636.31,2222.75"/>
    </edge>
    <edge id=":10_11" function="internal">
        <lane id=":10_11_0" index="0" speed="8.45" length="4.46" shape="1621.63,2231.49 1624.73,2229.05 1625.24,2228.95"/>
    </edge>
    <edge id=":10_13" function="internal">
        <lane id=":10_13_0" index="0" speed="8.45" length="11.70" shape="1625.24,2228.95 1628.11,2228.39 1631.80,2229.50 1635.78,2232.40"/>
    </edge>
    <edge id=":1134_0" function="internal">
        <lane id=":1134_0_0" index="0" speed="5.57" length="9.38" shape="912.65,2779.32 910.78,2777.12 909.09,2776.50 907.56,2777.47 906.21,2780.02"/>
    </edge>
    <edge id=":1134_1" function="internal">
        <lane id=":1134_1_0" index="0" speed="13.89" length="15.97" shape="912.65,2779.32 910.41,2776.11 907.84,2772.91 904.99,2770.00 901.92,2767.64"/>
    </edge>
    <edge id=":1134_2" function="internal">
        <lane id=":1134_2_0" index="0" speed="8.39" length="4.56" shape="912.65,2779.32 910.59,2775.25"/>
    </edge>
    <edge id=":1134_12" function="internal">
        <lane id=":1134_12_0" index="0" speed="8.39" length="12.25" shape="910.59,2775.25 910.28,2774.63 909.76,2770.67 911.08,2767.42 914.25,2764.90"/>
    </edge>
    <edge id=":1134_3" function="internal">
        <lane id=":1134_3_0" index="0" speed="6.99" length="11.33" shape="915.75,2767.73 913.81,2769.35 913.10,2771.53 913.60,2774.27 915.33,2777.57"/>
    </edge>
    <edge id=":1134_4" function="internal">
        <lane id=":1134_4_0" index="0" speed="13.89" length="15.85" shape="915.75,2767.73 912.64,2769.97 909.99,2773.00 907.83,2776.46 906.21,2780.02"/>
    </edge>
    <edge id=":1134_5" function="internal">
        <lane id=":1134_5_0" index="0" speed="10.28" length="14.52" shape="915.75,2767.73 912.09,2769.20 908.56,2769.68 905.17,2769.16 901.92,2767.64"/>
    </edge>
    <edge id=":1134_6" function="internal">
        <lane id=":1134_6_0" index="0" speed="9.07" length="11.15" shape="903.63,2764.94 906.09,2766.07 908.68,2766.44 911.40,2766.05 914.25,2764.90"/>
    </edge>
    <edge id=":1134_7" function="internal">
        <lane id=":1134_7_0" index="0" speed="13.89" length="17.32" shape="903.63,2764.94 906.85,2767.45 910.04,2770.69 912.94,2774.21 915.33,2777.57"/>
    </edge>
    <edge id=":1134_8" function="internal">
        <lane id=":1134_8_0" index="0" speed="9.34" length="4.13" shape="903.63,2764.94 906.30,2767.46 906.46,2767.88"/>
    </edge>
    <edge id=":1134_13" function="internal">
        <lane id=":1134_13_0" index="0" speed="9.34" length="12.55" shape="906.46,2767.88 907.62,2770.82 907.59,2775.01 906.21,2780.02"/>
    </edge>
    <edge id=":1134_9" function="internal">
        <lane id=":1134_9_0" index="0" speed="8.08" length="12.27" shape="903.22,2778.89 904.33,2775.03 904.49,2771.87 903.68,2769.41 901.92,2767.64"/>
    </edge>
    <edge id=":1134_10" function="internal">
        <lane id=":1134_10_0" index="0" speed="13.89" length="18.08" shape="903.22,2778.89 905.07,2775.06 907.74,2771.02 910.91,2767.41 914.25,2764.90"/>
    </edge>
    <edge id=":1134_11" function="internal">
        <lane id=":1134_11_0" index="0" speed="7.38" length="17.65" shape="903.22,2778.89 905.76,2774.09 908.63,2772.27 911.82,2773.43 915.33,2777.57"/>
    </edge>
    <edge id=":14_0" function="internal">
        <lane id=":14_0_0" index="0" speed="6.35" length="9.04" shape="1713.83,1538.21 1712.50,1536.09 1710.83,1534.96 1708.82,1534.83 1706.47,1535.69"/>
    </edge>
    <edge id=":14_1" function="internal">
        <lane id=":14_1_0" index="0" speed="13.89" length="13.62" shape="1713.83,1538.21 1712.51,1534.91 1711.65,1531.73 1711.32,1528.49 1711.60,1524.98"/>
    </edge>
    <edge id=":14_2" function="internal">
        <lane id=":14_2_0" index="0" speed="13.89" length="11.81" shape="1714.76,1525.50 1714.44,1528.72 1714.69,1531.34 1715.47,1533.89 1716.75,1536.91"/>
    </edge>
    <edge id=":14_3" function="internal">
        <lane id=":14_3_0" index="0" speed="10.92" length="3.12" shape="1714.76,1525.50 1713.85,1528.49"/>
    </edge>
    <edge id=":14_6" function="internal">
        <lane id=":14_6_0" index="0" speed="10.92" length="10.48" shape="1713.85,1528.49 1712.17,1531.19 1709.70,1533.58 1706.47,1535.69"/>
    </edge>
    <edge id=":14_4" function="internal">
        <lane id=":14_4_0" index="0" speed="9.73" length="10.68" shape="1704.95,1532.87 1707.56,1531.19 1709.55,1529.32 1710.89,1527.25 1711.60,1524.98"/>
    </edge>
    <edge id=":14_5" function="internal">
        <lane id=":14_5_0" index="0" speed="7.87" length="14.50" shape="1704.95,1532.87 1708.72,1531.49 1711.94,1531.70 1714.62,1533.51 1716.75,1536.91"/>
    </edge>
    <edge id=":1555_0" function="internal">
        <lane id=":1555_0_0" index="0" speed="13.89" length="15.84" shape="1521.52,1262.70 1517.74,1263.55 1513.74,1264.13 1509.71,1264.45 1505.83,1264.52"/>
    </edge>
    <edge id=":1555_1" function="internal">
        <lane id=":1555_1_0" index="0" speed="8.39" length="4.15" shape="1521.52,1262.70 1517.71,1263.10 1517.41,1263.00"/>
    </edge>
    <edge id=":1555_6" function="internal">
        <lane id=":1555_6_0" index="0" speed="8.39" length="11.02" shape="1517.41,1263.00 1514.54,1262.03 1512.04,1259.48 1510.19,1255.47"/>
    </edge>
    <edge id=":1555_2" function="internal">
        <lane id=":1555_2_0" index="0" speed="6.97" length="10.18" shape="1513.23,1254.49 1514.49,1257.28 1516.15,1259.06 1518.22,1259.84 1520.68,1259.62"/>
    </edge>
    <edge id=":1555_3" function="internal">
        <lane id=":1555_3_0" index="0" speed="7.55" length="15.60" shape="1513.23,1254.49 1513.99,1258.93 1513.01,1262.08 1510.29,1263.94 1505.83,1264.52"/>
    </edge>
    <edge id=":1555_4" function="internal">
        <lane id=":1555_4_0" index="0" speed="5.92" length="9.10" shape="1505.87,1261.32 1508.47,1260.98 1510.06,1259.89 1510.63,1258.06 1510.19,1255.47"/>
    </edge>
    <edge id=":1555_5" function="internal">
        <lane id=":1555_5_0" index="0" speed="13.89" length="14.96" shape="1505.87,1261.32 1509.61,1261.26 1513.34,1260.98 1517.03,1260.45 1520.68,1259.62"/>
    </edge>
    <edge id=":1642_0" function="internal">
        <lane id=":1642_0_0" index="0" speed="13.89" length="14.41" shape="1309.25,3576.50 1303.08,3589.53"/>
    </edge>
    <edge id=":1642_1" function="internal">
        <lane id=":1642_1_0" index="0" speed="7.85" length="4.13" shape="1309.25,3576.50 1307.02,3579.86 1306.93,3579.92"/>
    </edge>
    <edge id=":1642_6" function="internal">
        <lane id=":1642_6_0" index="0" speed="7.85" length="10.40" shape="1306.93,3579.92 1304.29,3581.59 1301.05,3581.70 1297.32,3580.18"/>
    </edge>
    <edge id=":1642_2" function="internal">
        <lane id=":1642_2_0" index="0" speed="6.33" length="9.04" shape="1298.94,3577.42 1301.26,3578.36 1303.27,3578.30 1304.97,3577.22 1306.36,3575.13"/>
    </edge>
    <edge id=":1642_3" function="internal">
        <lane id=":1642_3_0" index="0" speed="8.30" length="14.33" shape="1298.94,3577.42 1302.09,3579.87 1303.83,3582.71 1304.16,3585.93 1303.08,3589.53"/>
    </edge>
    <edge id=":1642_4" function="internal">
        <lane id=":1642_4_0" index="0" speed="6.87" length="9.49" shape="1300.19,3588.16 1300.88,3585.81 1300.64,3583.70 1299.45,3581.82 1297.32,3580.18"/>
    </edge>
    <edge id=":1642_5" function="internal">
        <lane id=":1642_5_0" index="0" speed="13.89" length="14.42" shape="1300.19,3588.16 1306.36,3575.13"/>
    </edge>
    <edge id=":1646_0" function="internal">
        <lane id=":1646_0_0" index="0" speed="12.03" length="18.93" shape="1930.49,3614.28 1928.08,3618.28 1924.82,3621.36 1920.70,3623.53 1915.74,3624.79"/>
    </edge>
    <edge id=":1646_1" function="internal">
        <lane id=":1646_1_0" index="0" speed="7.64" length="6.31" shape="1930.49,3614.28 1927.95,3618.23 1926.51,3618.95"/>
    </edge>
    <edge id=":1646_6" function="internal">
        <lane id=":1646_6_0" index="0" speed="7.64" length="10.59" shape="1926.51,3618.95 1924.93,3619.74 1921.44,3618.80 1917.48,3615.42"/>
    </edge>
    <edge id=":1646_2" function="internal">
        <lane id=":1646_2_0" index="0" speed="6.02" length="9.97" shape="1919.85,3613.26 1922.24,3615.34 1924.33,3615.99 1926.10,3615.20 1927.57,3612.97"/>
    </edge>
    <edge id=":1646_3" function="internal">
        <lane id=":1646_3_0" index="0" speed="7.38" length="17.33" shape="1919.85,3613.26 1922.88,3617.59 1923.21,3620.95 1920.83,3623.35 1915.74,3624.79"/>
    </edge>
    <edge id=":1646_4" function="internal">
        <lane id=":1646_4_0" index="0" speed="5.60" length="9.32" shape="1915.27,3621.62 1918.01,3620.85 1919.29,3619.56 1919.11,3617.75 1917.48,3615.42"/>
    </edge>
    <edge id=":1646_5" function="internal">
        <lane id=":1646_5_0" index="0" speed="10.99" length="15.72" shape="1915.27,3621.62 1919.43,3620.58 1922.86,3618.79 1925.58,3616.26 1927.57,3612.97"/>
    </edge>
    <edge id=":1650_0" function="internal">
        <lane id=":1650_0_0" index="0" speed="12.97" length="18.35" shape="1628.23,3674.80 1625.69,3670.68 1624.19,3666.42 1623.72,3662.03 1624.29,3657.49"/>
    </edge>
    <edge id=":1650_1" function="internal">
        <lane id=":1650_1_0" index="0" speed="7.42" length="6.30" shape="1628.23,3674.80 1625.79,3670.47 1625.78,3669.14"/>
    </edge>
    <edge id=":1650_6" function="internal">
        <lane id=":1650_6_0" index="0" speed="7.42" length="10.34" shape="1625.78,3669.14 1625.76,3667.12 1628.13,3664.76 1632.91,3663.38"/>
    </edge>
    <edge id=":1650_2" function="internal">
        <lane id=":1650_2_0" index="0" speed="5.69" length="9.22" shape="1633.38,3666.55 1630.73,3667.31 1629.42,3668.62 1629.43,3670.47 1630.78,3672.87"/>
    </edge>
    <edge id=":1650_3" function="internal">
        <lane id=":1650_3_0" index="0" speed="7.60" length="16.38" shape="1633.38,3666.55 1628.45,3666.63 1625.29,3665.14 1623.91,3662.10 1624.29,3657.49"/>
    </edge>
    <edge id=":1650_4" function="internal">
        <lane id=":1650_4_0" index="0" speed="5.98" length="9.62" shape="1627.41,3658.22 1627.20,3660.87 1628.05,3662.61 1629.95,3663.45 1632.91,3663.38"/>
    </edge>
    <edge id=":1650_5" function="internal">
        <lane id=":1650_5_0" index="0" speed="11.96" length="15.54" shape="1627.41,3658.22 1626.93,3662.05 1627.34,3665.76 1628.62,3669.37 1630.78,3672.87"/>
    </edge>
    <edge id=":1652_0" function="internal">
        <lane id=":1652_0_0" index="0" speed="6.01" length="10.40" shape="2213.18,3243.52 2212.17,3240.20 2210.72,3238.43 2208.81,3238.21 2206.44,3239.54"/>
    </edge>
    <edge id=":1652_1" function="internal">
        <lane id=":1652_1_0" index="0" speed="7.39" length="18.47" shape="2213.18,3243.52 2212.78,3237.73 2214.29,3234.65 2217.70,3234.26 2223.02,3236.56"/>
    </edge>
    <edge id=":1652_2" function="internal">
        <lane id=":1652_2_0" index="0" speed="5.51" length="9.55" shape="2221.41,3239.33 2218.66,3238.14 2216.90,3238.34 2216.12,3239.93 2216.32,3242.93"/>
    </edge>
    <edge id=":1652_3" function="internal">
        <lane id=":1652_3_0" index="0" speed="9.87" length="16.01" shape="2221.41,3239.33 2217.26,3237.47 2213.39,3236.89 2209.78,3237.58 2206.44,3239.54"/>
    </edge>
    <edge id=":1652_4" function="internal">
        <lane id=":1652_4_0" index="0" speed="10.95" length="19.90" shape="2204.42,3237.05 2208.63,3234.55 2213.14,3233.64 2217.93,3234.31 2223.02,3236.56"/>
    </edge>
    <edge id=":1652_5" function="internal">
        <lane id=":1652_5_0" index="0" speed="7.65" length="7.32" shape="2204.42,3237.05 2208.67,3234.58 2211.07,3234.68"/>
    </edge>
    <edge id=":1652_6" function="internal">
        <lane id=":1652_6_0" index="0" speed="7.65" length="10.45" shape="2211.07,3234.68 2212.07,3234.73 2214.62,3237.51 2216.32,3242.93"/>
    </edge>
    <edge id=":1664_0" function="internal">
        <lane id=":1664_0_0" index="0" speed="12.89" length="18.81" shape="2261.55,3481.80 2262.11,3487.07 2261.68,3491.79 2260.26,3495.97 2257.85,3499.59"/>
    </edge>
    <edge id=":1664_1" function="internal">
        <lane id=":1664_1_0" index="0" speed="7.38" length="6.68" shape="2261.55,3481.80 2261.91,3487.33 2261.41,3488.35"/>
    </edge>
    <edge id=":1664_6" function="internal">
        <lane id=":1664_6_0" index="0" speed="7.38" length="11.22" shape="2261.41,3488.35 2260.41,3490.39 2257.05,3490.97 2251.84,3489.08"/>
    </edge>
    <edge id=":1664_2" function="internal">
        <lane id=":1664_2_0" index="0" speed="5.55" length="9.43" shape="2253.29,3486.23 2256.04,3487.23 2257.81,3486.92 2258.60,3485.31 2258.41,3482.39"/>
    </edge>
    <edge id=":1664_3" function="internal">
        <lane id=":1664_3_0" index="0" speed="8.06" length="17.08" shape="2253.29,3486.23 2257.78,3489.20 2260.03,3492.42 2260.06,3495.88 2257.85,3499.59"/>
    </edge>
    <edge id=":1664_4" function="internal">
        <lane id=":1664_4_0" index="0" speed="6.58" length="10.98" shape="2255.43,3497.50 2256.69,3495.26 2256.51,3493.11 2254.90,3491.05 2251.84,3489.08"/>
    </edge>
    <edge id=":1664_5" function="internal">
        <lane id=":1664_5_0" index="0" speed="11.89" length="15.92" shape="2255.43,3497.50 2257.42,3494.48 2258.57,3490.96 2258.90,3486.93 2258.41,3482.39"/>
    </edge>
    <edge id=":1674_0" function="internal">
        <lane id=":1674_0_0" index="0" speed="5.67" length="9.24" shape="3080.60,2400.56 3079.23,2398.15 3077.66,2397.19 3075.88,2397.67 3073.89,2399.60"/>
    </edge>
    <edge id=":1674_1" function="internal">
        <lane id=":1674_1_0" index="0" speed="13.89" length="20.70" shape="3080.60,2400.56 3079.57,2396.07 3079.25,2390.37 3079.57,2384.64 3080.47,2380.09"/>
    </edge>
    <edge id=":1674_2" function="internal">
        <lane id=":1674_2_0" index="0" speed="9.32" length="19.29" shape="3080.60,2400.56 3079.51,2395.75 3080.40,2391.60 3083.26,2388.11 3088.09,2385.28"/>
    </edge>
    <edge id=":1674_3" function="internal">
        <lane id=":1674_3_0" index="0" speed="8.07" length="14.22" shape="3089.36,2388.21 3085.71,2390.33 3083.53,2392.89 3082.81,2395.90 3083.57,2399.36"/>
    </edge>
    <edge id=":1674_4" function="internal">
        <lane id=":1674_4_0" index="0" speed="13.89" length="19.33" shape="3089.36,2388.21 3085.44,2390.28 3081.06,2393.18 3076.96,2396.45 3073.89,2399.60"/>
    </edge>
    <edge id=":1674_5" function="internal">
        <lane id=":1674_5_0" index="0" speed="7.39" length="18.58" shape="3089.36,2388.21 3083.75,2389.88 3080.40,2389.08 3079.31,2385.82 3080.47,2380.09"/>
    </edge>
    <edge id=":1674_6" function="internal">
        <lane id=":1674_6_0" index="0" speed="5.50" length="9.57" shape="3083.51,2381.09 3082.91,2384.04 3083.48,2385.72 3085.20,2386.13 3088.09,2385.28"/>
    </edge>
    <edge id=":1674_7" function="internal">
        <lane id=":1674_7_0" index="0" speed="13.89" length="18.52" shape="3083.51,2381.09 3082.60,2385.30 3082.25,2390.27 3082.55,2395.22 3083.57,2399.36"/>
    </edge>
    <edge id=":1674_8" function="internal">
        <lane id=":1674_8_0" index="0" speed="13.89" length="20.92" shape="3083.51,2381.09 3081.79,2385.43 3079.27,2390.65 3076.48,2395.72 3073.89,2399.60"/>
    </edge>
    <edge id=":1674_9" function="internal">
        <lane id=":1674_9_0" index="0" speed="13.89" length="19.81" shape="3071.37,2397.62 3073.88,2393.89 3076.50,2389.16 3078.83,2384.28 3080.47,2380.09"/>
    </edge>
    <edge id=":1674_10" function="internal">
        <lane id=":1674_10_0" index="0" speed="13.89" length="3.71" shape="3071.37,2397.62 3073.98,2394.98"/>
    </edge>
    <edge id=":1674_11" function="internal">
        <lane id=":1674_11_0" index="0" speed="7.41" length="3.38" shape="3071.37,2397.62 3073.80,2395.27"/>
    </edge>
    <edge id=":1674_12" function="internal">
        <lane id=":1674_12_0" index="0" speed="13.89" length="17.18" shape="3073.98,2394.98 3074.65,2394.32 3079.17,2390.72 3083.98,2387.49 3088.09,2385.28"/>
    </edge>
    <edge id=":1674_13" function="internal">
        <lane id=":1674_13_0" index="0" speed="7.41" length="13.39" shape="3073.80,2395.27 3074.98,2394.12 3078.22,2393.24 3081.08,2394.99 3083.57,2399.36"/>
    </edge>
    <edge id=":1678_0" function="internal">
        <lane id=":1678_0_0" index="0" speed="5.91" length="9.10" shape="3003.07,2925.73 3002.68,2923.13 3001.56,2921.57 2999.71,2921.04 2997.13,2921.56"/>
    </edge>
    <edge id=":1678_1" function="internal">
        <lane id=":1678_1_0" index="0" speed="13.89" length="15.36" shape="3003.07,2925.73 3002.74,2921.94 3001.85,2918.16 3000.44,2914.55 2998.54,2911.26"/>
    </edge>
    <edge id=":1678_2" function="internal">
        <lane id=":1678_2_0" index="0" speed="13.89" length="17.19" shape="3003.07,2925.73 3003.47,2921.66 3004.61,2917.30 3006.34,2913.13 3008.49,2909.67"/>
    </edge>
    <edge id=":1678_3" function="internal">
        <lane id=":1678_3_0" index="0" speed="13.89" length="15.10" shape="3011.01,2911.64 3008.96,2914.79 3007.47,2918.27 3006.56,2921.95 3006.27,2925.70"/>
    </edge>
    <edge id=":1678_4" function="internal">
        <lane id=":1678_4_0" index="0" speed="13.89" length="17.23" shape="3011.01,2911.64 3008.21,2914.62 3004.69,2917.45 3000.86,2919.86 2997.13,2921.56"/>
    </edge>
    <edge id=":1678_5" function="internal">
        <lane id=":1678_5_0" index="0" speed="7.57" length="5.34" shape="3011.01,2911.64 3007.80,2914.73 3006.95,2914.99"/>
    </edge>
    <edge id=":1678_12" function="internal">
        <lane id=":1678_12_0" index="0" speed="7.57" length="10.16" shape="3006.95,2914.99 3004.65,2915.70 3001.56,2914.54 2998.54,2911.26"/>
    </edge>
    <edge id=":1678_6" function="internal">
        <lane id=":1678_6_0" index="0" speed="5.95" length="9.09" shape="3001.18,2909.44 3002.95,2911.37 3004.76,2912.05 3006.60,2911.48 3008.49,2909.67"/>
    </edge>
    <edge id=":1678_7" function="internal">
        <lane id=":1678_7_0" index="0" speed="13.89" length="17.22" shape="3001.18,2909.44 3003.16,2913.02 3004.77,2917.24 3005.86,2921.63 3006.27,2925.70"/>
    </edge>
    <edge id=":1678_8" function="internal">
        <lane id=":1678_8_0" index="0" speed="7.69" length="15.66" shape="3001.18,2909.44 3003.15,2913.43 3003.13,2916.78 3001.13,2919.49 2997.13,2921.56"/>
    </edge>
    <edge id=":1678_9" function="internal">
        <lane id=":1678_9_0" index="0" speed="6.11" length="9.43" shape="2996.07,2918.54 2998.49,2917.29 2999.70,2915.66 2999.72,2913.65 2998.54,2911.26"/>
    </edge>
    <edge id=":1678_10" function="internal">
        <lane id=":1678_10_0" index="0" speed="13.89" length="15.44" shape="2996.07,2918.54 2999.57,2917.01 3002.90,2914.96 3005.91,2912.48 3008.49,2909.67"/>
    </edge>
    <edge id=":1678_11" function="internal">
        <lane id=":1678_11_0" index="0" speed="7.54" length="3.12" shape="2996.07,2918.54 2999.13,2917.93"/>
    </edge>
    <edge id=":1678_13" function="internal">
        <lane id=":1678_13_0" index="0" speed="7.54" length="12.51" shape="2999.13,2917.93 3000.50,2917.66 3003.68,2918.55 3005.60,2921.24 3006.27,2925.70"/>
    </edge>
    <edge id=":1704_0" function="internal">
        <lane id=":1704_0_0" index="0" speed="13.89" length="16.72" shape="3200.73,2674.40 3197.22,2676.29 3193.81,2678.95 3190.69,2682.01 3188.06,2685.08"/>
    </edge>
    <edge id=":1704_1" function="internal">
        <lane id=":1704_1_0" index="0" speed="13.89" length="18.36" shape="3200.73,2674.40 3196.66,2675.64 3191.84,2676.58 3186.97,2677.21 3182.69,2677.50"/>
    </edge>
    <edge id=":1704_2" function="internal">
        <lane id=":1704_2_0" index="0" speed="8.31" length="4.44" shape="3200.73,2674.40 3196.93,2675.23 3196.39,2675.10"/>
    </edge>
    <edge id=":1704_12" function="internal">
        <lane id=":1704_12_0" index="0" speed="8.31" length="10.88" shape="3196.39,2675.10 3193.67,2674.47 3190.95,2672.12 3188.77,2668.20"/>
    </edge>
    <edge id=":1704_3" function="internal">
        <lane id=":1704_3_0" index="0" speed="6.89" length="10.20" shape="3191.74,2667.00 3193.21,2669.71 3195.00,2671.35 3197.12,2671.92 3199.55,2671.43"/>
    </edge>
    <edge id=":1704_4" function="internal">
        <lane id=":1704_4_0" index="0" speed="11.83" length="19.36" shape="3191.74,2667.00 3192.84,2671.43 3192.60,2675.93 3191.01,2680.48 3188.06,2685.08"/>
    </edge>
    <edge id=":1704_5" function="internal">
        <lane id=":1704_5_0" index="0" speed="7.88" length="17.43" shape="3191.74,2667.00 3192.70,2671.44 3191.51,2674.67 3188.18,2676.69 3182.69,2677.50"/>
    </edge>
    <edge id=":1704_6" function="internal">
        <lane id=":1704_6_0" index="0" speed="6.34" length="10.81" shape="3182.60,2674.30 3186.18,2673.82 3188.40,2672.64 3189.27,2670.77 3188.77,2668.20"/>
    </edge>
    <edge id=":1704_7" function="internal">
        <lane id=":1704_7_0" index="0" speed="13.89" length="17.26" shape="3182.60,2674.30 3186.70,2674.04 3191.21,2673.50 3195.65,2672.63 3199.55,2671.43"/>
    </edge>
    <edge id=":1704_8" function="internal">
        <lane id=":1704_8_0" index="0" speed="7.38" length="4.48" shape="3182.60,2674.30 3187.05,2674.70"/>
    </edge>
    <edge id=":1704_13" function="internal">
        <lane id=":1704_13_0" index="0" speed="7.38" length="13.78" shape="3187.05,2674.70 3188.28,2674.81 3191.08,2676.77 3191.01,2680.20 3188.06,2685.08"/>
    </edge>
    <edge id=":1704_9" function="internal">
        <lane id=":1704_9_0" index="0" speed="5.52" length="9.50" shape="3185.54,2683.11 3187.07,2680.57 3187.11,2678.78 3185.65,2677.76 3182.69,2677.50"/>
    </edge>
    <edge id=":1704_10" function="internal">
        <lane id=":1704_10_0" index="0" speed="10.79" length="16.00" shape="3185.54,2683.11 3188.03,2679.25 3189.40,2675.48 3189.64,2671.79 3188.77,2668.20"/>
    </edge>
    <edge id=":1704_11" function="internal">
        <lane id=":1704_11_0" index="0" speed="13.89" length="18.39" shape="3185.54,2683.11 3188.38,2679.88 3191.96,2676.48 3195.84,2673.48 3199.55,2671.43"/>
    </edge>
    <edge id=":1956_0" function="internal">
        <lane id=":1956_0_0" index="0" speed="5.78" length="9.15" shape="2671.28,1597.47 2669.25,1595.70 2667.41,1595.28 2665.77,1596.21 2664.33,1598.48"/>
    </edge>
    <edge id=":1956_1" function="internal">
        <lane id=":1956_1_0" index="0" speed="13.89" length="15.31" shape="2671.28,1597.47 2668.58,1594.79 2665.46,1592.50 2662.05,1590.73 2658.44,1589.59"/>
    </edge>
    <edge id=":1956_2" function="internal">
        <lane id=":1956_2_0" index="0" speed="8.26" length="15.67" shape="2671.28,1597.47 2668.66,1593.62 2667.80,1590.06 2668.68,1586.80 2671.31,1583.83"/>
    </edge>
    <edge id=":1956_3" function="internal">
        <lane id=":1956_3_0" index="0" speed="6.83" length="10.36" shape="2673.32,1586.33 2671.69,1588.22 2671.20,1590.36 2671.87,1592.74 2673.69,1595.37"/>
    </edge>
    <edge id=":1956_4" function="internal">
        <lane id=":1956_4_0" index="0" speed="13.89" length="15.24" shape="2673.32,1586.33 2670.56,1588.91 2668.14,1591.87 2666.06,1595.10 2664.33,1598.48"/>
    </edge>
    <edge id=":1956_5" function="internal">
        <lane id=":1956_5_0" index="0" speed="11.99" length="3.67" shape="2673.32,1586.33 2670.22,1588.30"/>
    </edge>
    <edge id=":1956_12" function="internal">
        <lane id=":1956_12_0" index="0" speed="11.99" length="12.08" shape="2670.22,1588.30 2670.02,1588.43 2666.44,1589.68 2662.58,1590.06 2658.44,1589.59"/>
    </edge>
    <edge id=":1956_6" function="internal">