<?xml version="1.0" encoding="UTF-8"?>

<!-- generated on 2022-09-23 05:24:30 by Eclipse SUMO netgenerate Version 1.14.1
<configuration xmlns:xsi="http://www.w3.org/2001/XMLSchema-instance" xsi:noNamespaceSchemaLocation="http://sumo.dlr.de/xsd/netgenerateConfiguration.xsd">

    <random_network>
        <rand value="true"/>
        <rand.iterations value="16"/>
        <rand.max-distance value="300"/>
        <rand.min-distance value="100"/>
        <rand.connectivity value="0.1"/>
        <random-lanenumber value="true"/>
    </random_network>

    <output>
        <output-file value="XXX.net.xml"/>
    </output>

    <building_defaults>
        <default.lanenumber value="1"/>
    </building_defaults>

    <junctions>
        <no-turnarounds value="true"/>
    </junctions>

</configuration>
-->

<net version="1.9" junctionCornerDetail="5" limitTurnSpeed="5.50" xmlns:xsi="http://www.w3.org/2001/XMLSchema-instance" xsi:noNamespaceSchemaLocation="http://sumo.dlr.de/xsd/net_file.xsd">

    <location netOffset="393.38,420.81" convBoundary="0.00,0.00,701.91,877.56" origBoundary="-393.38,-420.81,308.53,456.76" projParameter="!"/>

    <edge id=":1_0" function="internal">
        <lane id=":1_0_0" index="0" speed="5.98" length="9.08" shape="391.91,429.10 391.51,426.53 390.38,424.96 388.53,424.38 385.96,424.79"/>
    </edge>
    <edge id=":1_1" function="internal">
        <lane id=":1_1_0" index="0" speed="13.89" length="14.86" shape="391.91,429.10 391.78,425.38 391.46,421.69 390.94,418.03 390.19,414.38"/>
    </edge>
    <edge id=":1_2" function="internal">
        <lane id=":1_2_0" index="0" speed="8.09" length="4.36" shape="391.91,429.10 392.41,424.77"/>
    </edge>
    <edge id=":1_12" function="internal">
        <lane id=":1_12_0" index="0" speed="8.09" length="10.76" shape="392.41,424.77 394.06,421.72 396.86,419.96 400.82,419.49"/>
    </edge>
    <edge id=":1_3" function="internal">
        <lane id=":1_3_0" index="0" speed="6.62" length="9.76" shape="400.69,422.69 398.21,423.00 396.46,424.17 395.42,426.19 395.11,429.05"/>
    </edge>
    <edge id=":1_4" function="internal">
        <lane id=":1_4_0" index="0" speed="13.89" length="14.95" shape="400.69,422.69 396.95,422.73 393.24,423.11 389.57,423.81 385.96,424.79"/>
    </edge>
    <edge id=":1_5" function="internal">
        <lane id=":1_5_0" index="0" speed="9.03" length="14.51" shape="400.69,422.69 396.82,422.04 393.78,420.45 391.57,417.89 390.19,414.38"/>
    </edge>
    <edge id=":1_6" function="internal">
        <lane id=":1_6_0" index="0" speed="7.70" length="10.32" shape="393.31,413.63 394.28,416.10 395.86,417.91 398.04,419.03 400.82,419.49"/>
    </edge>
    <edge id=":1_7" function="internal">
        <lane id=":1_7_0" index="0" speed="13.89" length="15.56" shape="393.31,413.63 394.07,417.39 394.62,421.29 394.96,425.22 395.11,429.05"/>
    </edge>
    <edge id=":1_8" function="internal">
        <lane id=":1_8_0" index="0" speed="8.41" length="4.08" shape="393.31,413.63 393.59,417.42 393.50,417.68"/>
    </edge>
    <edge id=":1_13" function="internal">
        <lane id=":1_13_0" index="0" speed="8.41" length="10.92" shape="393.50,417.68 392.46,420.55 389.92,423.00 385.96,424.79"/>
    </edge>
    <edge id=":1_9" function="internal">
        <lane id=":1_9_0" index="0" speed="7.00" length="10.09" shape="385.01,421.73 387.76,420.52 389.54,418.89 390.35,416.84 390.19,414.38"/>
    </edge>
    <edge id=":1_10" function="internal">
        <lane id=":1_10_0" index="0" speed="13.89" length="16.03" shape="385.01,421.73 388.79,420.73 392.83,419.98 396.91,419.55 400.82,419.49"/>
    </edge>
    <edge id=":1_11" function="internal">
        <lane id=":1_11_0" index="0" speed="7.59" length="15.41" shape="385.01,421.73 389.37,421.03 392.51,422.02 394.42,424.69 395.11,429.05"/>
    </edge>
    <edge id=":10_0" function="internal">
        <lane id=":10_0_0" index="0" speed="10.81" length="15.45" shape="216.40,477.40 213.51,478.87 211.08,481.35 209.11,484.83 207.59,489.32"/>
    </edge>
    <edge id=":10_1" function="internal">
        <lane id=":10_1_0" index="0" speed="13.89" length="18.28" shape="216.40,477.40 212.40,478.84 207.90,480.73 203.47,482.78 199.66,484.69"/>
    </edge>
    <edge id=":10_2" function="internal">
        <lane id=":10_2_0" index="0" speed="7.88" length="3.82" shape="216.40,477.40 212.63,478.00"/>
    </edge>
    <edge id=":10_12" function="internal">
        <lane id=":10_12_0" index="0" speed="7.88" length="10.65" shape="212.63,478.00 212.45,478.03 209.33,477.21 207.04,474.93 205.57,471.21"/>
    </edge>
    <edge id=":10_3" function="internal">
        <lane id=":10_3_0" index="0" speed="6.36" length="9.04" shape="208.69,470.47 209.60,472.80 211.04,474.22 212.99,474.74 215.46,474.35"/>
    </edge>
    <edge id=":10_4" function="internal">
        <lane id=":10_4_0" index="0" speed="13.89" length="18.99" shape="208.69,470.47 209.18,474.79 209.04,479.91 208.45,485.02 207.59,489.32"/>
    </edge>
    <edge id=":10_5" function="internal">
        <lane id=":10_5_0" index="0" speed="9.80" length="17.63" shape="208.69,470.47 208.40,474.11 206.41,478.19 203.30,481.96 199.66,484.69"/>
    </edge>
    <edge id=":10_6" function="internal">
        <lane id=":10_6_0" index="0" speed="8.78" length="13.98" shape="198.17,481.85 201.94,479.46 204.43,476.88 205.64,474.13 205.57,471.21"/>
    </edge>
    <edge id=":10_7" function="internal">
        <lane id=":10_7_0" index="0" speed="13.89" length="18.86" shape="198.17,481.85 202.07,479.91 206.68,477.78 211.36,475.82 215.46,474.35"/>
    </edge>
    <edge id=":10_8" function="internal">
        <lane id=":10_8_0" index="0" speed="7.40" length="5.89" shape="198.17,481.85 203.67,479.75"/>
    </edge>
    <edge id=":10_13" function="internal">
        <lane id=":10_13_0" index="0" speed="7.40" length="12.79" shape="203.67,479.75 207.08,480.29 208.39,483.48 207.59,489.32"/>
    </edge>
    <edge id=":10_9" function="internal">
        <lane id=":10_9_0" index="0" speed="5.50" length="9.60" shape="204.50,488.52 204.90,485.52 204.23,483.88 202.48,483.61 199.66,484.69"/>
    </edge>
    <edge id=":10_10" function="internal">
        <lane id=":10_10_0" index="0" speed="13.89" length="17.47" shape="204.50,488.52 205.35,484.46 205.93,479.87 206.06,475.28 205.57,471.21"/>
    </edge>
    <edge id=":10_11" function="internal">
        <lane id=":10_11_0" index="0" speed="11.75" length="18.40" shape="204.50,488.52 206.28,484.04 209.04,479.73 212.28,476.27 215.46,474.35"/>
    </edge>
    <edge id=":12_0" function="internal">
        <lane id=":12_0_0" index="0" speed="13.89" length="10.09" shape="472.66,212.24 470.80,209.91 469.32,208.47 467.54,207.42 464.80,206.26"/>
    </edge>
    <edge id=":12_1" function="internal">
        <lane id=":12_1_0" index="0" speed="8.09" length="3.39" shape="472.66,212.24 471.09,209.52 471.05,209.28"/>
    </edge>
    <edge id=":12_6" function="internal">
        <lane id=":12_6_0" index="0" speed="8.09" length="8.40" shape="471.05,209.28 470.58,206.81 471.13,204.11 472.73,201.42"/>
    </edge>
    <edge id=":12_2" function="internal">
        <lane id=":12_2_0" index="0" speed="6.57" length="7.50" shape="475.24,203.40 474.22,205.12 473.87,206.84 474.20,208.56 475.19,210.29"/>
    </edge>
    <edge id=":12_3" function="internal">
        <lane id=":12_3_0" index="0" speed="8.23" length="11.71" shape="475.24,203.40 473.00,205.58 470.52,206.79 467.78,207.01 464.80,206.26"/>
    </edge>
    <edge id=":12_4" function="internal">
        <lane id=":12_4_0" index="0" speed="6.73" length="7.58" shape="465.98,203.29 467.90,203.77 469.67,203.62 471.28,202.83 472.73,201.42"/>
    </edge>
    <edge id=":12_5" function="internal">
        <lane id=":12_5_0" index="0" speed="13.89" length="11.77" shape="465.98,203.29 468.95,204.61 471.19,206.00 473.12,207.78 475.19,210.29"/>
    </edge>
    <edge id=":2_0" function="internal">
        <lane id=":2_0_0" index="0" speed="13.89" length="15.15" shape="329.25,160.56 328.35,156.89 327.35,153.22 326.20,149.60 324.81,146.09"/>
    </edge>
    <edge id=":2_1" function="internal">
        <lane id=":2_1_0" index="0" speed="7.38" length="5.11" shape="329.25,160.56 328.69,155.48"/>
    </edge>
    <edge id=":2_6" function="internal">
        <lane id=":2_6_0" index="0" speed="7.38" length="12.40" shape="328.69,155.48 328.66,155.23 330.00,152.12 333.27,151.23 338.47,152.57"/>
    </edge>
    <edge id=":2_2" function="internal">
        <lane id=":2_2_0" index="0" speed="5.58" length="9.36" shape="337.29,155.54 334.51,154.83 332.76,155.30 332.05,156.96 332.36,159.81"/>
    </edge>
    <edge id=":2_3" function="internal">
        <lane id=":2_3_0" index="0" speed="13.26" length="15.99" shape="337.29,155.54 333.66,153.93 330.07,151.84 326.96,149.24 324.81,146.09"/>
    </edge>
    <edge id=":2_4" function="internal">
        <lane id=":2_4_0" index="0" speed="12.27" length="13.63" shape="327.74,144.80 329.62,147.68 332.12,149.70 335.12,151.22 338.47,152.57"/>
    </edge>
    <edge id=":2_5" function="internal">
        <lane id=":2_5_0" index="0" speed="13.89" length="15.73" shape="327.74,144.80 329.15,148.39 330.37,152.20 331.43,156.06 332.36,159.81"/>
    </edge>
    <edge id=":6_0" function="internal">
        <lane id=":6_0_0" index="0" speed="10.62" length="15.29" shape="396.48,678.95 395.70,675.02 394.08,671.69 391.62,668.98 388.32,666.87"/>
    </edge>
    <edge id=":6_1" function="internal">
        <lane id=":6_1_0" index="0" speed="13.89" length="18.71" shape="396.48,678.95 395.54,660.27"/>
    </edge>
    <edge id=":6_2" function="internal">
        <lane id=":6_2_0" index="0" speed="7.41" length="16.67" shape="396.48,678.95 396.73,673.97 398.49,671.12 401.76,670.40 406.54,671.82"/>
    </edge>
    <edge id=":6_3" function="internal">
        <lane id=":6_3_0" index="0" speed="5.69" length="9.22" shape="405.23,674.74 402.59,673.96 400.78,674.35 399.81,675.93 399.67,678.68"/>
    </edge>
    <edge id=":6_4" function="internal">
        <lane id=":6_4_0" index="0" speed="13.89" length="18.65" shape="405.23,674.74 388.32,666.87"/>
    </edge>
    <edge id=":6_5" function="internal">
        <lane id=":6_5_0" index="0" speed="10.88" length="5.30" shape="405.23,674.74 401.72,672.29 401.07,671.51"/>
    </edge>
    <edge id=":6_12" function="internal">
        <lane id=":6_12_0" index="0" speed="10.88" length="12.77" shape="401.07,671.51 398.63,668.62 396.42,664.38 395.54,660.27"/>
    </edge>
    <edge id=":6_6" function="internal">
        <lane id=":6_6_0" index="0" speed="9.89" length="14.82" shape="398.74,660.21 399.28,664.00 400.76,667.20 403.18,669.80 406.54,671.82"/>
    </edge>
    <edge id=":6_7" function="internal">
        <lane id=":6_7_0" index="0" speed="13.89" length="18.49" shape="398.74,660.21 399.67,678.68"/>
    </edge>
    <edge id=":6_8" function="internal">
        <lane id=":6_8_0" index="0" speed="7.43" length="16.41" shape="398.74,660.21 398.16,665.05 396.23,667.77 392.95,668.38 388.32,666.87"/>
    </edge>
    <edge id=":6_9" function="internal">
        <lane id=":6_9_0" index="0" speed="5.73" length="9.19" shape="389.71,663.99 392.30,664.83 394.14,664.49 395.22,662.97 395.54,660.27"/>
    </edge>
    <edge id=":6_10" function="internal">
        <lane id=":6_10_0" index="0" speed="13.89" length="18.56" shape="389.71,663.99 406.54,671.82"/>
    </edge>
    <edge id=":6_11" function="internal">
        <lane id=":6_11_0" index="0" speed="11.58" length="4.91" shape="389.71,663.99 393.12,666.49 393.56,667.01"/>
    </edge>
    <edge id=":6_13" function="internal">
        <lane id=":6_13_0" index="0" speed="11.58" length="13.37" shape="393.56,667.01 396.23,670.23 398.57,674.52 399.67,678.68"/>
    </edge>
    <edge id=":8_0" function="internal">
        <lane id=":8_0_0" index="0" speed="5.62" length="9.30" shape="644.95,439.89 643.44,437.50 641.83,436.64 640.13,437.30 638.34,439.48"/>
    </edge>
    <edge id=":8_1" function="internal">
        <lane id=":8_1_0" index="0" speed="10.75" length="16.90" shape="644.95,439.89 642.69,436.33 639.67,433.74 635.89,432.10 631.36,431.44"/>
    </edge>
    <edge id=":8_2" function="internal">
        <lane id=":8_2_0" index="0" speed="13.89" length="20.26" shape="644.95,439.89 642.84,435.84 640.01,431.06 637.01,426.37 634.37,422.65"/>
    </edge>
    <edge id=":8_3" function="internal">
        <lane id=":8_3_0" index="0" speed="13.89" length="20.96" shape="636.90,420.70 639.60,424.52 642.73,429.41 645.68,434.40 647.85,438.54"/>
    </edge>
    <edge id=":8_4" function="internal">
        <lane id=":8_4_0" index="0" speed="11.00" length="6.32" shape="636.90,420.70 639.72,425.42 639.92,426.21"/>
    </edge>
    <edge id=":8_5" function="internal">
        <lane id=":8_5_0" index="0" speed="7.38" length="6.00" shape="636.90,420.70 639.81,425.60 639.81,425.90"/>
    </edge>
    <edge id=":8_12" function="internal">
        <lane id=":8_12_0" index="0" speed="11.00" length="13.87" shape="639.92,426.21 640.90,430.12 640.44,434.81 638.34,439.48"/>
    </edge>
    <edge id=":8_13" function="internal">
        <lane id=":8_13_0" index="0" speed="7.38" length="12.25" shape="639.81,425.90 639.85,429.02 637.04,430.97 631.36,431.44"/>
    </edge>
    <edge id=":8_6" function="internal">
        <lane id=":8_6_0" index="0" speed="5.52" length="9.50" shape="631.48,428.24 634.44,427.99 635.90,426.98 635.88,425.20 634.37,422.65"/>
    </edge>
    <edge id=":8_7" function="internal">
        <lane id=":8_7_0" index="0" speed="11.78" length="20.42" shape="631.48,428.24 636.92,429.05 641.47,431.04 645.11,434.20 647.85,438.54"/>
    </edge>
    <edge id=":8_8" function="internal">
        <lane id=":8_8_0" index="0" speed="7.63" length="17.93" shape="631.48,428.24 637.00,429.13 639.98,431.31 640.43,434.76 638.34,439.48"/>
    </edge>
    <edge id=":8_9" function="internal">
        <lane id=":8_9_0" index="0" speed="5.97" length="10.38" shape="635.62,437.78 636.77,435.12 636.45,433.18 634.64,431.95 631.36,431.44"/>
    </edge>
    <edge id=":8_10" function="internal">
        <lane id=":8_10_0" index="0" speed="9.92" length="16.27" shape="635.62,437.78 637.29,434.05 637.64,430.28 636.66,426.48 634.37,422.65"/>
    </edge>
    <edge id=":8_11" function="internal">
        <lane id=":8_11_0" index="0" speed="7.39" length="17.19" shape="635.62,437.78 638.94,433.75 642.09,432.53 645.06,434.13 647.85,438.54"/>
    </edge>

    <edge id="-11" from="10" to="1" priority="-1">
        <lane id="-11_0" index="0" speed="13.89" length="177.53" shape="215.46,474.35 385.01,421.73"/>
    </edge>
    <edge id="-13" from="12" to="2" priority="-1">
        <lane id="-13_0" index="0" speed="13.89" length="137.23" shape="464.80,206.26 337.29,155.54"/>
    </edge>
    <edge id="-15" from="14" to="2" priority="-1">
        <lane id="-15_0" index="0" speed="13.89" length="159.09" shape="263.28,-0.65 327.74,144.80"/>
    </edge>
    <edge id="-21" from="20" to="6" priority="-1">
        <lane id="-21_0" index="0" speed="13.89" length="199.44" shape="413.10,877.70 396.48,678.95"/>
    </edge>
    <edge id="-3" from="2" to="1" priority="-1">
        <lane id="-3_0" index="0" speed="13.89" length="261.03" shape="332.36,159.81 393.31,413.63"/>
    </edge>
    <edge id="-31" from="30" to="6" priority="-1">
        <lane id="-31_0" index="0" speed="13.89" length="124.40" shape="277.69,609.89 389.71,663.99"/>
    </edge>
    <edge id="-45" from="44" to="6" priority="-1">
        <lane id="-45_0" index="0" speed="13.89" length="276.20" shape="657.34,787.56 405.23,674.74"/>
    </edge>
    <edge id="-47" from="46" to="8" priority="-1">
        <lane id="-47_0" index="0" speed="13.89" length="152.88" shape="554.51,567.37 635.62,437.78"/>
    </edge>
    <edge id="-49" from="48" to="8" priority="-1">
        <lane id="-49_0" index="0" speed="13.89" length="131.54" shape="700.46,559.15 644.95,439.89"/>
    </edge>
    <edge id="-50" from="12" to="8" priority="-1">
        <lane id="-50_0" index="0" speed="13.89" length="265.37" shape="475.19,210.29 636.90,420.70"/>
    </edge>
    <edge id="-52" from="51" to="10" priority="-1">
        <lane id="-52_0" index="0" speed="13.89" length="159.17" shape="164.87,642.68 204.50,488.52"/>
    </edge>
    <edge id="-54" from="53" to="10" priority="-1">
        <lane id="-54_0" index="0" speed="13.89" length="224.54" shape="-0.74,586.02 198.17,481.85"/>
    </edge>
    <edge id="-7" from="6" to="1" priority="-1">
        <lane id="-7_0" index="0" speed="13.89" length="231.19" shape="395.54,660.27 391.91,429.10"/>
    </edge>
    <edge id="-76" from="75" to="10" priority="-1">
        <lane id="-76_0" index="0" speed="13.89" length="117.43" shape="181.83,356.16 208.69,470.47"/>
    </edge>
    <edge id="-9" from="8" to="1" priority="-1">
        <lane id="-9_0" index="0" speed="13.89" length="230.83" shape="631.36,431.44 400.69,422.69"/>
    </edge>
    <edge id="-90" from="89" to="12" priority="-1">
        <lane id="-90_0" index="0" speed="13.89" length="114.96" shape="546.59,113.26 475.24,203.40"/>
    </edge>
    <edge id="11" from="1" to="10" priority="-1">
        <lane id="11_0" index="0" speed="13.89" length="177.53" shape="385.96,424.79 216.40,477.40"/>
    </edge>
    <edge id="13" from="2" to="12" priority="-1">
        <lane id="13_0" index="0" speed="13.89" length="137.23" shape="338.47,152.57 465.98,203.29"/>
    </edge>
    <edge id="15" from="2" to="14" priority="-1">
        <lane id="15_0" index="0" speed="13.89" length="159.09" shape="324.81,146.09 260.36,0.65"/>
    </edge>
    <edge id="21" from="6" to="20" priority="-1">
        <lane id="21_0" index="0" speed="13.89" length="199.44" shape="399.67,678.68 416.29,877.43"/>
    </edge>
    <edge id="3" from="1" to="2" priority="-1">
        <lane id="3_0" index="0" speed="13.89" length="261.03" shape="390.19,414.38 329.25,160.56"/>
    </edge>
    <edge id="31" from="6" to="30" priority="-1">
        <lane id="31_0" index="0" speed="13.89" length="124.40" shape="388.32,666.87 276.30,612.77"/>
    </edge>
    <edge id="45" from="6" to="44" priority="-1">
        <lane id="45_0" index="0" speed="13.89" length="276.20" shape="406.54,671.82 658.65,784.64"/>
    </edge>
    <edge id="47" from="8" to="46" priority="-1">
        <lane id="47_0" index="0" speed="13.89" length="152.88" shape="638.34,439.48 557.22,569.07"/>
    </edge>
    <edge id="49" from="8" to="48" priority="-1">
        <lane id="49_0" index="0" speed="13.89" length="131.54" shape="647.85,438.54 703.37,557.80"/>
    </edge>
    <edge id="50" from="8" to="12" priority="-1">
        <lane id="50_0" index="0" speed="13.89" length="265.37" shape="634.37,422.65 472.66,212.24"/>
    </edge>
    <edge id="52" from="10" to="51" priority="-1">
        <lane id="52_0" index="0" speed="13.89" length="159.17" shape="207.59,489.32 167.97,643.48"/>
    </edge>
    <edge id="54" from="10" to="53" priority="-1">
        <lane id="54_0" index="0" speed="13.89" length="224.54" shape="199.66,484.69 0.74,588.86"/>
    </edge>
    <edge id="7" from="1" to="6" priority="-1">
        <lane id="7_0" index="0" speed="13.89" length="231.19" shape="395.11,429.05 398.74,660.21"/>
    </edge>
    <edge id="76" from="10" to="75" priority="-1">
        <lane id="76_0" index="0" speed="13.89" length="117.43" shape="205.57,471.21 178.72,356.89"/>
    </edge>
    <edge id="9" from="1" to="8" priority="-1">
        <lane id="9_0" index="0" speed="13.89" length="230.83" shape="400.82,419.49 631.48,428.24"/>
    </edge>
    <edge id="90" from="12" to="89" priority="-1">
        <lane id="90_0" index="0" speed="13.89" length="114.96" shape="472.73,201.42 544.08,111.28"/>
    </edge>

    <junction id="1" type="priority" x="393.38" y="420.81" incLanes="-7_0 -9_0 -3_0 -11_0" intLanes=":1_0_0 :1_1_0 :1_12_0 :1_3_0 :1_4_0 :1_5_0 :1_6_0 :1_7_0 :1_13_0 :1_9_0 :1_10_0 :1_11_0" shape="390.31,429.13 396.71,429.03 397.11,426.33 397.65,425.39 398.42,424.74 399.41,424.37 400.63,424.28 400.88,417.89 398.01,417.29 396.90,416.64 396.00,415.75 395.32,414.62 394.86,413.26 388.64,414.75 388.60,417.08 388.08,418.06 387.23,418.90 386.05,419.62 384.53,420.20 386.43,426.32 388.56,426.10 389.31,426.43 389.85,427.04 390.19,427.94">
        <request index="0"  response="000000000000" foes="000100010000" cont="0"/>
        <request index="1"  response="000000000000" foes="111100110000" cont="0"/>
        <request index="2"  response="000011000000" foes="110111110000" cont="1"/>
        <request index="3"  response="000010000000" foes="100010000000" cont="0"/>
        <request index="4"  response="000110000111" foes="100110000111" cont="0"/>
        <request index="5"  response="011110000110" foes="111110000110" cont="0"/>
        <request index="6"  response="000000000000" foes="010000000100" cont="0"/>
        <request index="7"  response="000000000000" foes="110000111100" cont="0"/>
        <request index="8"  response="000000000111" foes="110000110111" cont="1"/>
        <request index="9"  response="000000000010" foes="000000100010" cont="0"/>
        <request index="10" response="000111000110" foes="000111100110" cont="0"/>
        <request index="11" response="000110111110" foes="000110111110" cont="0"/>
    </junction>
    <junction id="10" type="priority" x="208.83" y="478.08" incLanes="11_0 -76_0 -54_0 -52_0" intLanes=":10_0_0 :10_1_0 :10_12_0 :10_3_0 :10_4_0 :10_5_0 :10_6_0 :10_7_0 :10_13_0 :10_9_0 :10_10_0 :10_11_0" shape="216.88,478.93 214.98,472.82 212.76,473.04 211.89,472.73 211.18,472.14 210.63,471.27 210.25,470.11 204.02,471.57 203.79,474.70 202.94,476.20 201.59,477.65 199.76,479.07 197.43,480.44 200.40,486.11 202.26,485.50 202.81,485.68 203.11,486.18 203.15,486.99 202.95,488.12 209.14,489.72 210.01,486.89 211.04,484.47 212.25,482.46 213.62,480.87 215.17,479.69">
        <request index="0"  response="000000000000" foes="000100010000" cont="0"/>
        <request index="1"  response="000000000000" foes="111100110000" cont="0"/>
        <request index="2"  response="000011000000" foes="110011110000" cont="1"/>
        <request index="3"  response="000010000000" foes="100010000000" cont="0"/>
        <request index="4"  response="000110000111" foes="100110000111" cont="0"/>
        <request index="5"  response="011110000110" foes="011110000110" cont="0"/>
        <request index="6"  response="000000000000" foes="010000000100" cont="0"/>
        <request index="7"  response="000000000000" foes="110000111100" cont="0"/>
        <request index="8"  response="000000000011" foes="110000110011" cont="1"/>
        <request index="9"  response="000000000010" foes="000000100010" cont="0"/>
        <request index="10" response="000111000110" foes="000111100110" cont="0"/>
        <request index="11" response="000110011110" foes="000110011110" cont="0"/>
    </junction>
    <junction id="12" type="priority" x="470.50" y="206.81" incLanes="50_0 -90_0 13_0" intLanes=":12_0_0 :12_6_0 :12_2_0 :12_3_0 :12_4_0 :12_5_0" shape="471.39,213.21 476.46,209.31 475.62,207.67 475.52,206.85 475.63,206.03 475.96,205.21 476.50,204.39 471.48,200.42 470.04,201.70 469.25,202.04 468.41,202.16 467.51,202.09 466.57,201.80 464.21,207.75 467.32,209.11 468.34,209.77 469.24,210.58 470.19,211.68">
        <request index="0" response="000000" foes="001000" cont="0"/>
        <request index="1" response="110000" foes="111000" cont="1"/>
        <request index="2" response="100000" foes="100000" cont="0"/>
        <request index="3" response="100011" foes="100011" cont="0"/>
        <request index="4" response="000000" foes="000010" cont="0"/>
        <request index="5" response="000000" foes="001110" cont="0"/>
    </junction>
    <junction id="14" type="dead_end" x="261.82" y="0.00" incLanes="15_0" intLanes="" shape="261.82,0.00 258.90,1.30 261.82,0.00"/>
    <junction id="2" type="priority" x="328.43" y="150.29" incLanes="3_0 -13_0 -15_0" intLanes=":2_0_0 :2_6_0 :2_2_0 :2_3_0 :2_4_0 :2_5_0" shape="327.69,160.93 333.91,159.44 333.81,157.44 334.14,156.89 334.74,156.64 335.59,156.68 336.70,157.03 339.06,151.08 336.56,150.18 334.56,149.52 332.95,148.85 331.60,147.90 330.39,146.42 329.20,144.15 323.35,146.74 324.60,149.65 325.43,151.83 326.00,153.68 326.46,155.55 326.98,157.85">
        <request index="0" response="000000" foes="001000" cont="0"/>
        <request index="1" response="110000" foes="111000" cont="1"/>
        <request index="2" response="100000" foes="100000" cont="0"/>
        <request index="3" response="100011" foes="100011" cont="0"/>
        <request index="4" response="000000" foes="000010" cont="0"/>
        <request index="5" response="000000" foes="001110" cont="0"/>
    </junction>
    <junction id="20" type="dead_end" x="414.70" y="877.56" incLanes="21_0" intLanes="" shape="414.70,877.56 417.89,877.30 414.70,877.56"/>
    <junction id="30" type="dead_end" x="276.99" y="611.33" incLanes="31_0" intLanes="" shape="276.99,611.33 275.60,614.21 276.99,611.33"/>
    <junction id="44" type="dead_end" x="657.99" y="786.10" incLanes="45_0" intLanes="" shape="657.99,786.10 659.30,783.18 657.99,786.10"/>
    <junction id="46" type="dead_end" x="555.86" y="568.22" incLanes="47_0" intLanes="" shape="555.86,568.22 558.58,569.92 555.86,568.22"/>
    <junction id="48" type="dead_end" x="701.91" y="558.47" incLanes="49_0" intLanes="" shape="701.91,558.47 704.82,557.12 701.91,558.47"/>
    <junction id="51" type="dead_end" x="166.42" y="643.08" incLanes="52_0" intLanes="" shape="166.42,643.08 169.52,643.88 166.42,643.08"/>
    <junction id="53" type="dead_end" x="0.00" y="587.44" incLanes="54_0" intLanes="" shape="0.00,587.44 1.48,590.27 0.00,587.44"/>
    <junction id="6" type="priority" x="397.29" y="669.43" incLanes="-21_0 -45_0 7_0 -31_0" intLanes=":6_0_0 :6_1_0 :6_2_0 :6_3_0 :6_4_0 :6_12_0 :6_6_0 :6_7_0 :6_8_0 :6_9_0 :6_10_0 :6_13_0" shape="394.88,679.08 401.26,678.55 401.48,676.52 401.93,675.97 402.59,675.73 403.47,675.81 404.58,676.20 407.19,670.36 405.13,669.24 403.44,667.89 402.11,666.31 401.15,664.50 400.57,662.46 400.34,660.19 393.94,660.29 393.58,662.32 393.09,662.85 392.40,663.07 391.50,662.97 390.41,662.55 387.62,668.31 389.67,669.50 391.38,670.93 392.75,672.61 393.80,674.52 394.51,676.68">
        <request index="0"  response="000000010000" foes="000100010000" cont="0"/>
        <request index="1"  response="111000110000" foes="111100110000" cont="0"/>
        <request index="2"  response="110011110000" foes="110011110000" cont="0"/>
        <request index="3"  response="000000000000" foes="100010000000" cont="0"/>
        <request index="4"  response="000000000000" foes="100110000111" cont="0"/>
        <request index="5"  response="011000000000" foes="011110000110" cont="1"/>
        <request index="6"  response="010000000000" foes="010000000100" cont="0"/>
        <request index="7"  response="110000111000" foes="110000111100" cont="0"/>
        <request index="8"  response="110000110011" foes="110000110011" cont="0"/>
        <request index="9"  response="000000000000" foes="000000100010" cont="0"/>
        <request index="10" response="000000000000" foes="000111100110" cont="0"/>
        <request index="11" response="000000011000" foes="000110011110" cont="1"/>
    </junction>
    <junction id="75" type="dead_end" x="180.28" y="356.53" incLanes="76_0" intLanes="" shape="180.28,356.53 177.16,357.26 180.28,356.53"/>
    <junction id="8" type="priority" x="642.23" y="430.25" incLanes="-49_0 -50_0 9_0 -47_0" intLanes=":8_0_0 :8_1_0 :8_2_0 :8_3_0 :8_12_0 :8_13_0 :8_6_0 :8_7_0 :8_8_0 :8_9_0 :8_10_0 :8_11_0" shape="643.50,440.57 649.30,437.87 647.37,433.76 645.86,430.75 644.49,428.34 642.94,426.03 640.94,423.32 638.17,419.72 633.10,423.62 634.01,425.37 633.93,425.96 633.49,426.37 632.69,426.60 631.54,426.64 631.30,433.04 633.98,433.56 634.68,434.11 634.97,434.86 634.83,435.80 634.27,436.94 639.69,440.33 641.06,438.85 641.71,438.69 642.33,438.93 642.93,439.55">
        <request index="0"  response="000000000000" foes="000100010000" cont="0"/>
        <request index="1"  response="000000000000" foes="111100110000" cont="0"/>
        <request index="2"  response="000000000000" foes="110011110000" cont="0"/>
        <request index="3"  response="000000000000" foes="100010000000" cont="0"/>
        <request index="4"  response="000000000111" foes="100110000111" cont="1"/>
        <request index="5"  response="000000000110" foes="011110000110" cont="1"/>
        <request index="6"  response="000000000100" foes="010000000100" cont="0"/>
        <request index="7"  response="000000111100" foes="110000111100" cont="0"/>
        <request index="8"  response="000000110011" foes="110000110011" cont="0"/>
        <request index="9"  response="000000100010" foes="000000100010" cont="0"/>
        <request index="10" response="000111100110" foes="000111100110" cont="0"/>
        <request index="11" response="000110011110" foes="000110011110" cont="0"/>
    </junction>
    <junction id="89" type="dead_end" x="545.33" y="112.27" incLanes="90_0" intLanes="" shape="545.33,112.27 542.82,110.28 545.33,112.27"/>

    <junction id=":1_12_0" type="internal" x="392.41" y="424.77" incLanes=":1_2_0 -3_0" intLanes=":1_4_0 :1_5_0 :1_6_0 :1_7_0 :1_10_0 :1_11_0"/>
    <junction id=":1_13_0" type="internal" x="393.50" y="417.68" incLanes=":1_8_0 -7_0" intLanes=":1_0_0 :1_1_0 :1_4_0 :1_5_0 :1_10_0 :1_11_0"/>
    <junction id=":10_12_0" type="internal" x="212.63" y="478.00" incLanes=":10_2_0 -54_0" intLanes=":10_4_0 :10_5_0 :10_6_0 :10_7_0 :10_10_0 :10_11_0"/>
    <junction id=":10_13_0" type="internal" x="203.67" y="479.75" incLanes=":10_8_0 11_0" intLanes=":10_0_0 :10_1_0 :10_4_0 :10_5_0 :10_10_0 :10_11_0"/>
    <junction id=":12_6_0" type="internal" x="471.05" y="209.28" incLanes=":12_1_0 13_0" intLanes=":12_3_0 :12_4_0 :12_5_0"/>
    <junction id=":2_6_0" type="internal" x="328.69" y="155.48" incLanes=":2_1_0 -15_0" intLanes=":2_3_0 :2_4_0 :2_5_0"/>