<?xml version="1.0" encoding="UTF-8"?>

<!-- generated on 2022-11-28 02:02:46 by Eclipse SUMO netedit Version 1.14.1
<configuration xmlns:xsi="http://www.w3.org/2001/XMLSchema-instance" xsi:noNamespaceSchemaLocation="http://sumo.dlr.de/xsd/netconvertConfiguration.xsd">

    <input>
        <sumo-net-file value="randomSmall.net.xml"/>
    </input>

    <output>
        <output-file value="randomSmall.net.xml"/>
    </output>

    <processing>
        <geometry.min-radius.fix.railways value="false"/>
        <geometry.max-grade.fix value="false"/>
        <offset.disable-normalization value="true"/>
        <lefthand value="false"/>
    </processing>

    <junctions>
        <no-turnarounds value="true"/>
        <junctions.corner-detail value="5"/>
        <junctions.limit-turn-speed value="5.5"/>
        <rectangular-lane-cut value="false"/>
    </junctions>

    <pedestrian>
        <walkingareas value="false"/>
    </pedestrian>

</configuration>
-->

<net version="1.9" junctionCornerDetail="5" limitTurnSpeed="5.50" xmlns:xsi="http://www.w3.org/2001/XMLSchema-instance" xsi:noNamespaceSchemaLocation="http://sumo.dlr.de/xsd/net_file.xsd">

    <location netOffset="600.49,767.07" convBoundary="0.00,0.00,1288.11,1338.18" origBoundary="-600.49,-767.07,687.62,571.11" projParameter="!"/>

    <edge id=":1_0" function="internal">
        <lane id=":1_0_0" index="0" speed="5.98" length="9.08" shape="599.02,775.37 598.61,772.80 597.48,771.22 595.63,770.64 593.06,771.05"/>
    </edge>
    <edge id=":1_1" function="internal">
        <lane id=":1_1_0" index="0" speed="13.89" length="14.86" shape="599.02,775.37 598.88,771.64 598.57,767.95 598.05,764.29 597.30,760.64"/>
    </edge>
    <edge id=":1_2" function="internal">
        <lane id=":1_2_0" index="0" speed="8.09" length="4.36" shape="599.02,775.37 599.52,771.03"/>
    </edge>
    <edge id=":1_12" function="internal">
        <lane id=":1_12_0" index="0" speed="8.09" length="10.76" shape="599.52,771.03 601.17,767.98 603.97,766.22 607.92,765.75"/>
    </edge>
    <edge id=":1_3" function="internal">
        <lane id=":1_3_0" index="0" speed="6.62" length="9.76" shape="607.80,768.95 605.32,769.27 603.56,770.43 602.53,772.45 602.22,775.32"/>
    </edge>
    <edge id=":1_4" function="internal">
        <lane id=":1_4_0" index="0" speed="13.89" length="14.95" shape="607.80,768.95 604.06,768.99 600.35,769.37 596.68,770.07 593.06,771.05"/>
    </edge>
    <edge id=":1_5" function="internal">
        <lane id=":1_5_0" index="0" speed="9.03" length="14.51" shape="607.80,768.95 603.93,768.31 600.88,766.71 598.68,764.15 597.30,760.64"/>
    </edge>
    <edge id=":1_6" function="internal">
        <lane id=":1_6_0" index="0" speed="7.70" length="10.32" shape="600.41,759.89 601.39,762.37 602.96,764.17 605.14,765.30 607.92,765.75"/>
    </edge>
    <edge id=":1_7" function="internal">
        <lane id=":1_7_0" index="0" speed="13.89" length="15.56" shape="600.41,759.89 601.18,763.65 601.72,767.55 602.07,771.48 602.22,775.32"/>
    </edge>
    <edge id=":1_8" function="internal">
        <lane id=":1_8_0" index="0" speed="8.41" length="4.08" shape="600.41,759.89 600.70,763.69 600.60,763.95"/>
    </edge>
    <edge id=":1_13" function="internal">
        <lane id=":1_13_0" index="0" speed="8.41" length="10.92" shape="600.60,763.95 599.57,766.81 597.02,769.27 593.06,771.05"/>
    </edge>
    <edge id=":1_9" function="internal">
        <lane id=":1_9_0" index="0" speed="7.00" length="10.09" shape="592.11,767.99 594.86,766.78 596.65,765.15 597.46,763.10 597.30,760.64"/>
    </edge>
    <edge id=":1_10" function="internal">
        <lane id=":1_10_0" index="0" speed="13.89" length="16.03" shape="592.11,767.99 595.90,766.99 599.94,766.25 604.02,765.81 607.92,765.75"/>
    </edge>
    <edge id=":1_11" function="internal">
        <lane id=":1_11_0" index="0" speed="7.59" length="15.41" shape="592.11,767.99 596.47,767.29 599.61,768.28 601.53,770.96 602.22,775.32"/>
    </edge>
    <edge id=":10_0" function="internal">
        <lane id=":10_0_0" index="0" speed="8.99" length="10.51" shape="372.58,839.47 369.75,840.62 367.56,842.12 366.00,843.97 365.07,846.16"/>
    </edge>
    <edge id=":10_1" function="internal">
        <lane id=":10_1_0" index="0" speed="7.86" length="14.52" shape="372.58,839.47 368.60,840.10 365.48,839.27 363.21,836.97 361.79,833.20"/>
    </edge>
    <edge id=":10_2" function="internal">
        <lane id=":10_2_0" index="0" speed="6.33" length="9.04" shape="364.92,832.51 365.80,834.86 367.21,836.29 369.16,836.81 371.63,836.41"/>
    </edge>
    <edge id=":10_3" function="internal">
        <lane id=":10_3_0" index="0" speed="13.89" length="13.79" shape="364.92,832.51 365.57,836.02 365.86,839.35 365.72,842.67 365.07,846.16"/>
    </edge>
    <edge id=":10_4" function="internal">
        <lane id=":10_4_0" index="0" speed="13.89" length="12.32" shape="361.97,845.37 362.62,842.11 362.75,839.30 362.45,836.48 361.79,833.20"/>
    </edge>
    <edge id=":10_5" function="internal">
        <lane id=":10_5_0" index="0" speed="10.22" length="3.23" shape="361.97,845.37 363.20,842.38"/>
    </edge>
    <edge id=":10_6" function="internal">
        <lane id=":10_6_0" index="0" speed="10.22" length="10.55" shape="363.20,842.38 365.22,839.89 368.03,837.90 371.63,836.41"/>
    </edge>
    <edge id=":14_0" function="internal">
        <lane id=":14_0_0" index="0" speed="13.89" length="12.67" shape="440.66,281.56 439.24,278.47 437.80,275.88 436.04,273.53 433.64,271.15"/>
    </edge>
    <edge id=":14_1" function="internal">
        <lane id=":14_1_0" index="0" speed="7.69" length="4.03" shape="440.66,281.56 439.57,277.68"/>
    </edge>
    <edge id=":14_6" function="internal">
        <lane id=":14_6_0" index="0" speed="7.69" length="10.97" shape="439.57,277.68 439.52,277.48 440.07,274.26 442.33,271.90 446.30,270.41"/>
    </edge>
    <edge id=":14_2" function="internal">
        <lane id=":14_2_0" index="0" speed="6.12" length="9.06" shape="446.99,273.53 444.60,274.43 443.23,275.86 442.90,277.80 443.59,280.26"/>
    </edge>
    <edge id=":14_3" function="internal">
        <lane id=":14_3_0" index="0" speed="10.87" length="14.07" shape="446.99,273.53 442.96,274.09 439.39,273.88 436.29,272.90 433.64,271.15"/>
    </edge>
    <edge id=":14_4" function="internal">
        <lane id=":14_4_0" index="0" speed="9.69" length="11.06" shape="435.76,268.76 437.77,270.05 440.20,270.76 443.04,270.88 446.30,270.41"/>
    </edge>
    <edge id=":14_5" function="internal">
        <lane id=":14_5_0" index="0" speed="13.89" length="14.03" shape="435.76,268.76 438.28,271.31 440.32,274.04 442.04,277.00 443.59,280.26"/>
    </edge>
    <edge id=":18_0" function="internal">
        <lane id=":18_0_0" index="0" speed="6.15" length="10.49" shape="669.68,231.45 667.66,229.71 665.69,229.53 663.76,230.91 661.87,233.83"/>
    </edge>
    <edge id=":18_1" function="internal">
        <lane id=":18_1_0" index="0" speed="10.41" length="15.94" shape="669.68,231.45 666.89,228.88 663.54,227.35 659.62,226.86 655.13,227.40"/>
    </edge>
    <edge id=":18_2" function="internal">
        <lane id=":18_2_0" index="0" speed="9.91" length="15.28" shape="669.68,231.45 667.13,227.66 665.77,224.06 665.61,220.62 666.64,217.36"/>
    </edge>
    <edge id=":18_3" function="internal">
        <lane id=":18_3_0" index="0" speed="8.68" length="11.57" shape="669.49,218.82 668.79,221.17 669.00,223.72 670.13,226.47 672.16,229.42"/>
    </edge>
    <edge id=":18_4" function="internal">
        <lane id=":18_4_0" index="0" speed="13.89" length="16.83" shape="669.49,218.82 661.87,233.83"/>
    </edge>
    <edge id=":18_5" function="internal">
        <lane id=":18_5_0" index="0" speed="12.57" length="3.75" shape="669.49,218.82 667.42,221.64 667.22,221.79"/>
    </edge>
    <edge id=":18_12" function="internal">
        <lane id=":18_12_0" index="0" speed="12.57" length="13.47" shape="667.22,221.79 664.34,224.01 660.24,225.93 655.13,227.40"/>
    </edge>
    <edge id=":18_6" function="internal">
        <lane id=":18_6_0" index="0" speed="11.54" length="14.42" shape="654.44,224.27 658.86,223.03 662.37,221.46 664.96,219.57 666.64,217.36"/>
    </edge>
    <edge id=":18_7" function="internal">
        <lane id=":18_7_0" index="0" speed="11.47" length="19.49" shape="654.44,224.27 659.85,223.64 664.60,224.29 668.71,226.22 672.16,229.42"/>
    </edge>
    <edge id=":18_8" function="internal">
        <lane id=":18_8_0" index="0" speed="7.38" length="18.16" shape="654.44,224.27 660.08,223.72 663.19,225.13 663.79,228.50 661.87,233.83"/>
    </edge>
    <edge id=":18_9" function="internal">
        <lane id=":18_9_0" index="0" speed="5.53" length="9.48" shape="659.01,232.39 660.02,229.61 659.70,227.85 658.08,227.11 655.13,227.40"/>
    </edge>
    <edge id=":18_10" function="internal">
        <lane id=":18_10_0" index="0" speed="13.89" length="16.85" shape="659.01,232.39 666.64,217.36"/>
    </edge>
    <edge id=":18_11" function="internal">
        <lane id=":18_11_0" index="0" speed="7.74" length="5.53" shape="659.01,232.39 662.07,227.78"/>
    </edge>
    <edge id=":18_13" function="internal">
        <lane id=":18_13_0" index="0" speed="7.74" length="11.92" shape="662.07,227.78 665.28,225.75 668.64,226.30 672.16,229.42"/>
    </edge>
    <edge id=":2_0" function="internal">
        <lane id=":2_0_0" index="0" speed="13.89" length="15.61" shape="532.64,491.36 531.58,487.67 530.23,483.96 528.71,480.29 527.17,476.77"/>
    </edge>
    <edge id=":2_1" function="internal">
        <lane id=":2_1_0" index="0" speed="13.89" length="3.23" shape="532.64,491.36 532.46,488.14"/>
    </edge>
    <edge id=":2_6" function="internal">
        <lane id=":2_6_0" index="0" speed="13.89" length="13.23" shape="532.46,488.14 532.42,487.48 533.24,483.35 534.70,479.29 536.41,475.63"/>
    </edge>
    <edge id=":2_2" function="internal">
        <lane id=":2_2_0" index="0" speed="13.52" length="14.30" shape="539.26,477.07 537.60,480.39 536.23,483.69 535.49,487.08 535.75,490.62"/>
    </edge>
    <edge id=":2_3" function="internal">
        <lane id=":2_3_0" index="0" speed="7.38" length="18.18" shape="539.26,477.07 536.12,481.79 533.06,483.31 530.07,481.64 527.17,476.77"/>
    </edge>
    <edge id=":2_4" function="internal">
        <lane id=":2_4_0" index="0" speed="5.53" length="9.49" shape="530.09,475.47 531.61,478.01 533.17,478.89 534.76,478.09 536.41,475.63"/>
    </edge>
    <edge id=":2_5" function="internal">
        <lane id=":2_5_0" index="0" speed="13.89" length="16.19" shape="530.09,475.47 531.67,479.08 533.24,482.94 534.66,486.84 535.75,490.62"/>
    </edge>
    <edge id=":24_0" function="internal">
        <lane id=":24_0_0" index="0" speed="13.89" length="14.70" shape="822.00,983.30 818.35,983.92 814.76,984.60 811.20,985.37 807.62,986.29"/>
    </edge>
    <edge id=":24_1" function="internal">
        <lane id=":24_1_0" index="0" speed="7.44" length="4.68" shape="822.00,983.30 817.32,983.43"/>
    </edge>
    <edge id=":24_6" function="internal">
        <lane id=":24_6_0" index="0" speed="7.44" length="11.67" shape="817.32,983.43 817.16,983.43 814.19,981.92 813.08,978.78 813.84,974.00"/>
    </edge>
    <edge id=":24_2" function="internal">
        <lane id=":24_2_0" index="0" speed="5.75" length="9.18" shape="816.90,974.92 816.47,977.60 817.10,979.37 818.77,980.22 821.48,980.15"/>
    </edge>
    <edge id=":24_3" function="internal">
        <lane id=":24_3_0" index="0" speed="10.85" length="15.30" shape="816.90,974.92 815.23,979.23 813.13,982.56 810.59,984.91 807.62,986.29"/>
    </edge>
    <edge id=":24_4" function="internal">
        <lane id=":24_4_0" index="0" speed="9.69" length="12.09" shape="806.75,983.21 808.96,982.14 810.87,980.25 812.50,977.53 813.84,974.00"/>
    </edge>
    <edge id=":24_5" function="internal">
        <lane id=":24_5_0" index="0" speed="13.89" length="15.05" shape="806.75,983.21 810.39,982.28 814.07,981.48 817.78,980.78 821.48,980.15"/>
    </edge>
    <edge id=":27_0" function="internal">
        <lane id=":27_0_0" index="0" speed="11.53" length="19.22" shape="1039.55,938.46 1037.44,942.84 1034.38,946.22 1030.37,948.60 1025.42,949.99"/>
    </edge>
    <edge id=":27_1" function="internal">
        <lane id=":27_1_0" index="0" speed="7.52" length="7.00" shape="1039.55,938.46 1037.33,942.86 1035.59,943.98"/>
    </edge>
    <edge id=":27_6" function="internal">
        <lane id=":27_6_0" index="0" speed="7.52" length="10.06" shape="1035.59,943.98 1034.50,944.68 1031.06,943.93 1027.00,940.60"/>
    </edge>
    <edge id=":27_2" function="internal">
        <lane id=":27_2_0" index="0" speed="5.84" length="9.71" shape="1029.32,938.40 1031.67,940.35 1033.66,940.84 1035.27,939.87 1036.52,937.44"/>
    </edge>
    <edge id=":27_3" function="internal">
        <lane id=":27_3_0" index="0" speed="7.38" length="17.35" shape="1029.32,938.40 1032.44,942.68 1032.83,946.04 1030.49,948.48 1025.42,949.99"/>
    </edge>
    <edge id=":27_4" function="internal">
        <lane id=":27_4_0" index="0" speed="5.60" length="9.33" shape="1024.90,946.83 1027.63,946.02 1028.89,944.71 1028.68,942.90 1027.00,940.60"/>
    </edge>
    <edge id=":27_5" function="internal">
        <lane id=":27_5_0" index="0" speed="10.48" length="15.75" shape="1024.90,946.83 1028.98,945.70 1032.28,943.75 1034.79,941.00 1036.52,937.44"/>
    </edge>
    <edge id=":29_0" function="internal">
        <lane id=":29_0_0" index="0" speed="13.89" length="13.40" shape="1114.91,722.45 1112.44,724.85 1110.76,727.54 1109.53,730.54 1108.40,733.90"/>
    </edge>
    <edge id=":29_1" function="internal">
        <lane id=":29_1_0" index="0" speed="13.89" length="15.17" shape="1114.91,722.45 1111.73,724.43 1108.23,725.90 1104.57,727.01 1100.87,727.90"/>
    </edge>
    <edge id=":29_2" function="internal">
        <lane id=":29_2_0" index="0" speed="13.89" length="13.82" shape="1100.17,724.78 1103.67,723.98 1106.91,723.07 1109.98,721.79 1112.97,719.91"/>
    </edge>
    <edge id=":29_3" function="internal">
        <lane id=":29_3_0" index="0" speed="7.40" length="4.61" shape="1100.17,724.78 1104.76,724.36"/>
    </edge>
    <edge id=":29_6" function="internal">
        <lane id=":29_6_0" index="0" speed="7.40" length="12.36" shape="1104.76,724.36 1105.27,724.31 1108.35,725.68 1109.39,728.87 1108.40,733.90"/>
    </edge>
    <edge id=":29_4" function="internal">
        <lane id=":29_4_0" index="0" speed="5.64" length="9.27" shape="1105.37,732.88 1105.91,730.14 1105.34,728.39 1103.66,727.65 1100.87,727.90"/>
    </edge>
    <edge id=":29_5" function="internal">
        <lane id=":29_5_0" index="0" speed="13.89" length="15.24" shape="1105.37,732.88 1106.67,729.28 1108.28,725.75 1110.33,722.55 1112.97,719.91"/>
    </edge>
    <edge id=":35_0" function="internal">
        <lane id=":35_0_0" index="0" speed="5.66" length="9.25" shape="308.17,589.30 307.22,586.68 305.83,585.47 304.00,585.68 301.73,587.29"/>
    </edge>
    <edge id=":35_1" function="internal">
        <lane id=":35_1_0" index="0" speed="13.89" length="15.53" shape="308.17,589.30 307.08,585.60 305.43,582.01 303.24,578.76 300.53,576.10"/>
    </edge>
    <edge id=":35_2" function="internal">
        <lane id=":35_2_0" index="0" speed="13.89" length="17.69" shape="302.48,573.56 305.38,576.51 307.97,580.40 310.02,584.63 311.30,588.61"/>
    </edge>
    <edge id=":35_3" function="internal">
        <lane id=":35_3_0" index="0" speed="8.07" length="5.04" shape="302.48,573.56 305.30,576.63 305.51,577.47"/>
    </edge>
    <edge id=":35_6" function="internal">
        <lane id=":35_6_0" index="0" speed="8.07" length="11.26" shape="305.51,577.47 306.12,579.94 304.93,583.49 301.73,587.29"/>
    </edge>
    <edge id=":35_4" function="internal">
        <lane id=":35_4_0" index="0" speed="6.60" length="10.50" shape="299.55,584.95 301.73,582.42 302.62,580.11 302.22,578.00 300.53,576.10"/>
    </edge>
    <edge id=":35_5" function="internal">
        <lane id=":35_5_0" index="0" speed="7.40" length="16.87" shape="299.55,584.95 303.69,582.00 307.03,581.63 309.56,583.83 311.30,588.61"/>
    </edge>
    <edge id=":55_0" function="internal">
        <lane id=":55_0_0" index="0" speed="13.89" length="14.13" shape="305.20,1073.03 304.46,1069.56 302.96,1066.49 300.95,1063.62 298.68,1060.75"/>
    </edge>
    <edge id=":55_1" function="internal">
        <lane id=":55_1_0" index="0" speed="13.89" length="15.83" shape="305.20,1073.03 305.22,1069.17 305.73,1065.17 306.54,1061.21 307.47,1057.43"/>
    </edge>
    <edge id=":55_2" function="internal">
        <lane id=":55_2_0" index="0" speed="13.89" length="14.80" shape="310.57,1058.22 309.65,1061.84 308.87,1065.45 308.40,1069.09 308.39,1072.79"/>
    </edge>
    <edge id=":55_3" function="internal">
        <lane id=":55_3_0" index="0" speed="7.38" length="5.01" shape="310.57,1058.22 308.73,1062.88"/>
    </edge>
    <edge id=":55_6" function="internal">
        <lane id=":55_6_0" index="0" speed="7.38" length="12.81" shape="308.73,1062.88 308.55,1063.34 305.90,1065.47 302.61,1064.61 298.68,1060.75"/>
    </edge>
    <edge id=":55_4" function="internal">
        <lane id=":55_4_0" index="0" speed="5.55" length="9.41" shape="301.19,1058.76 303.26,1060.80 305.00,1061.26 306.40,1060.13 307.47,1057.43"/>
    </edge>
    <edge id=":55_5" function="internal">
        <lane id=":55_5_0" index="0" speed="13.89" length="15.97" shape="301.19,1058.76 303.57,1061.90 305.81,1065.37 307.54,1069.04 308.39,1072.79"/>
    </edge>
    <edge id=":58_0" function="internal">
        <lane id=":58_0_0" index="0" speed="9.41" length="11.84" shape="262.90,120.40 259.97,118.17 257.22,116.80 254.63,116.28 252.21,116.60"/>
    </edge>
    <edge id=":58_1" function="internal">
        <lane id=":58_1_0" index="0" speed="7.46" length="16.13" shape="262.90,120.40 259.81,116.81 259.08,113.56 260.72,110.67 264.73,108.13"/>
    </edge>
    <edge id=":58_2" function="internal">
        <lane id=":58_2_0" index="0" speed="5.79" length="9.15" shape="266.05,111.04 263.78,112.48 262.85,114.12 263.26,115.96 265.02,118.00"/>
    </edge>
    <edge id=":58_3" function="internal">
        <lane id=":58_3_0" index="0" speed="13.89" length="14.93" shape="266.05,111.04 262.64,112.57 259.21,114.02 255.74,115.38 252.21,116.60"/>
    </edge>
    <edge id=":58_4" function="internal">
        <lane id=":58_4_0" index="0" speed="13.89" length="14.56" shape="251.23,113.56 254.70,112.35 258.05,111.05 261.37,109.64 264.73,108.13"/>
    </edge>
    <edge id=":58_5" function="internal">
        <lane id=":58_5_0" index="0" speed="10.58" length="3.45" shape="251.23,113.56 254.49,113.06 254.64,113.08"/>
    </edge>
    <edge id=":58_6" function="internal">
        <lane id=":58_6_0" index="0" speed="10.58" length="11.70" shape="254.64,113.08 257.88,113.63 261.39,115.28 265.02,118.00"/>
    </edge>
    <edge id=":6_0" function="internal">
        <lane id=":6_0_0" index="0" speed="10.14" length="12.73" shape="613.08,1040.71 609.87,1041.95 607.28,1043.72 605.32,1046.02 603.97,1048.84"/>
    </edge>
    <edge id=":6_1" function="internal">
        <lane id=":6_1_0" index="0" speed="13.89" length="16.87" shape="613.08,1040.71 609.11,1041.45 604.72,1041.68 600.33,1041.40 596.37,1040.61"/>
    </edge>
    <edge id=":6_2" function="internal">
        <lane id=":6_2_0" index="0" speed="7.65" length="15.40" shape="613.08,1040.71 608.76,1041.26 605.65,1040.17 603.76,1037.45 603.07,1033.07"/>
    </edge>
    <edge id=":6_3" function="internal">
        <lane id=":6_3_0" index="0" speed="6.06" length="9.20" shape="606.27,1033.02 606.68,1035.65 607.81,1037.29 609.65,1037.95 612.22,1037.62"/>
    </edge>
    <edge id=":6_4" function="internal">
        <lane id=":6_4_0" index="0" speed="13.89" length="16.05" shape="606.27,1033.02 606.17,1036.94 605.75,1041.03 605.01,1045.07 603.97,1048.84"/>
    </edge>
    <edge id=":6_5" function="internal">
        <lane id=":6_5_0" index="0" speed="7.58" length="4.79" shape="606.27,1033.02 605.71,1037.42 605.51,1037.72"/>
    </edge>
    <edge id=":6_12" function="internal">
        <lane id=":6_12_0" index="0" speed="7.58" length="10.66" shape="605.51,1037.72 603.88,1040.15 600.76,1041.22 596.37,1040.61"/>
    </edge>
    <edge id=":6_6" function="internal">
        <lane id=":6_6_0" index="0" speed="5.96" length="9.09" shape="597.25,1037.54 599.83,1037.89 601.66,1037.27 602.74,1035.66 603.07,1033.07"/>
    </edge>
    <edge id=":6_7" function="internal">
        <lane id=":6_7_0" index="0" speed="13.89" length="15.14" shape="597.25,1037.54 600.94,1038.32 604.73,1038.60 608.52,1038.37 612.22,1037.62"/>
    </edge>
    <edge id=":6_8" function="internal">
        <lane id=":6_8_0" index="0" speed="8.11" length="15.15" shape="597.25,1037.54 601.27,1039.27 603.73,1041.74 604.63,1044.92 603.97,1048.84"/>
    </edge>
    <edge id=":6_9" function="internal">
        <lane id=":6_9_0" index="0" speed="6.65" length="9.81" shape="600.93,1047.82 601.33,1045.35 600.70,1043.33 599.05,1041.75 596.37,1040.61"/>
    </edge>
    <edge id=":6_10" function="internal">
        <lane id=":6_10_0" index="0" speed="13.89" length="14.97" shape="600.93,1047.82 601.95,1044.22 602.63,1040.54 602.99,1036.82 603.07,1033.07"/>
    </edge>
    <edge id=":6_11" function="internal">
        <lane id=":6_11_0" index="0" speed="11.27" length="3.93" shape="600.93,1047.82 602.62,1044.27"/>
    </edge>
    <edge id=":6_13" function="internal">
        <lane id=":6_13_0" index="0" speed="11.27" length="11.91" shape="602.62,1044.27 605.07,1041.38 608.26,1039.17 612.22,1037.62"/>
    </edge>
    <edge id=":8_0" function="internal">
        <lane id=":8_0_0" index="0" speed="5.69" length="9.30" shape="880.26,785.56 878.07,783.79 876.23,783.45 874.74,784.53 873.59,787.05"/>
    </edge>
    <edge id=":8_1" function="internal">
        <lane id=":8_1_0" index="0" speed="13.09" length="15.58" shape="880.26,785.56 877.38,783.00 874.02,780.88 870.37,779.40 866.61,778.77"/>
    </edge>
    <edge id=":8_2" function="internal">
        <lane id=":8_2_0" index="0" speed="7.40" length="16.89" shape="880.26,785.56 877.28,781.44 876.88,778.11 879.07,775.56 883.84,773.79"/>
    </edge>
    <edge id=":8_3" function="internal">
        <lane id=":8_3_0" index="0" speed="5.66" length="9.25" shape="884.54,776.92 881.93,777.88 880.73,779.28 880.95,781.11 882.58,783.36"/>
    </edge>
    <edge id=":8_4" function="internal">
        <lane id=":8_4_0" index="0" speed="10.64" length="15.68" shape="884.54,776.92 880.68,778.27 877.57,780.41 875.21,783.34 873.59,787.05"/>
    </edge>
    <edge id=":8_5" function="internal">
        <lane id=":8_5_0" index="0" speed="13.89" length="18.06" shape="884.54,776.92 880.39,777.70 875.62,778.33 870.84,778.72 866.61,778.77"/>
    </edge>
    <edge id=":8_6" function="internal">
        <lane id=":8_6_0" index="0" speed="13.89" length="17.23" shape="866.73,775.57 870.83,775.53 875.33,775.17 879.81,774.57 883.84,773.79"/>
    </edge>
    <edge id=":8_7" function="internal">
        <lane id=":8_7_0" index="0" speed="13.89" length="3.55" shape="866.73,775.57 870.22,776.24"/>
    </edge>
    <edge id=":8_8" function="internal">
        <lane id=":8_8_0" index="0" speed="7.86" length="3.39" shape="866.73,775.57 870.06,776.25"/>
    </edge>
    <edge id=":8_12" function="internal">
        <lane id=":8_12_0" index="0" speed="13.89" length="14.41" shape="870.22,776.24 870.84,776.36 875.24,778.18 879.36,780.64 882.58,783.36"/>
    </edge>
    <edge id=":8_13" function="internal">
        <lane id=":8_13_0" index="0" speed="7.86" length="12.92" shape="870.06,776.25 870.99,776.44 873.55,778.64 874.42,782.18 873.59,787.05"/>
    </edge>
    <edge id=":8_9" function="internal">
        <lane id=":8_9_0" index="0" speed="6.33" length="10.13" shape="870.53,786.13 871.09,783.00 870.63,780.73 869.13,779.32 866.61,778.77"/>
    </edge>
    <edge id=":8_10" function="internal">
        <lane id=":8_10_0" index="0" speed="11.69" length="19.07" shape="870.53,786.13 872.49,781.61 875.36,778.04 879.15,775.44 883.84,773.79"/>
    </edge>
    <edge id=":8_11" function="internal">
        <lane id=":8_11_0" index="0" speed="7.42" length="16.84" shape="870.53,786.13 872.61,781.55 875.32,779.56 878.64,780.17 882.58,783.36"/>
    </edge>

    <edge id="-11" from="10" to="1" priority="-1">
        <lane id="-11_0" index="0" speed="13.89" length="230.85" shape="371.63,836.41 592.11,767.99"/>
    </edge>
    <edge id="-15" from="14" to="2" priority="-1">
        <lane id="-15_0" index="0" speed="13.89" length="213.52" shape="443.59,280.26 530.09,475.47"/>
    </edge>
    <edge id="-19" from="18" to="2" priority="-1">
        <lane id="-19_0" index="0" speed="13.89" length="272.40" shape="661.87,233.83 539.26,477.07"/>
    </edge>
    <edge id="-194" from="27" to="24" priority="-1">
        <lane id="-194_0" index="0" speed="13.89" length="206.13" shape="1025.42,949.99 822.00,983.30"/>
    </edge>
    <edge id="-195" from="29" to="27" priority="-1">
        <lane id="-195_0" index="0" speed="13.89" length="215.84" shape="1108.40,733.90 1039.55,938.46"/>
    </edge>
    <edge id="-197" from="196" to="29" priority="-1">
        <lane id="-197_0" index="0" speed="13.89" length="219.08" shape="1289.08,589.55 1114.91,722.45"/>
    </edge>
    <edge id="-205" from="204" to="35" priority="-1">
        <lane id="-205_0" index="0" speed="13.89" length="271.22" shape="87.42,408.30 302.48,573.56"/>
    </edge>
    <edge id="-21" from="20" to="6" priority="-1">
        <lane id="-21_0" index="0" speed="13.89" length="231.35" shape="374.81,973.95 597.25,1037.54"/>
    </edge>
    <edge id="-223" from="222" to="35" priority="-1">
        <lane id="-223_0" index="0" speed="13.89" length="258.29" shape="110.55,761.00 299.55,584.95"/>
    </edge>
    <edge id="-23" from="22" to="6" priority="-1">
        <lane id="-23_0" index="0" speed="13.89" length="195.89" shape="538.34,1233.44 600.93,1047.82"/>
    </edge>
    <edge id="-25" from="24" to="6" priority="-1">
        <lane id="-25_0" index="0" speed="13.89" length="202.00" shape="807.62,986.29 613.08,1040.71"/>
    </edge>
    <edge id="-26" from="24" to="8" priority="-1">
        <lane id="-26_0" index="0" speed="13.89" length="196.23" shape="813.84,974.00 870.53,786.13"/>
    </edge>
    <edge id="-28" from="27" to="8" priority="-1">
        <lane id="-28_0" index="0" speed="13.89" length="213.47" shape="1027.00,940.60 880.26,785.56"/>
    </edge>
    <edge id="-3" from="2" to="1" priority="-1">
        <lane id="-3_0" index="0" speed="13.89" length="276.93" shape="535.75,490.62 600.41,759.89"/>
    </edge>
    <edge id="-30" from="29" to="8" priority="-1">
        <lane id="-30_0" index="0" speed="13.89" length="221.81" shape="1100.87,727.90 884.54,776.92"/>
    </edge>
    <edge id="-341" from="340" to="55" priority="-1">
        <lane id="-341_0" index="0" speed="13.89" length="266.01" shape="325.05,1338.30 305.20,1073.03"/>
    </edge>
    <edge id="-342" from="39" to="55" priority="-1">
        <lane id="-342_0" index="0" speed="13.89" length="266.46" shape="135.68,849.94 301.19,1058.76"/>
    </edge>
    <edge id="-343" from="66" to="58" priority="-1">
        <lane id="-343_0" index="0" speed="13.89" length="216.32" shape="462.90,21.35 266.05,111.04"/>
    </edge>
    <edge id="-345" from="344" to="58" priority="-1">
        <lane id="-345_0" index="0" speed="13.89" length="264.56" shape="-0.49,194.99 251.23,113.56"/>
    </edge>
    <edge id="-36" from="35" to="10" priority="-1">
        <lane id="-36_0" index="0" speed="13.89" length="249.72" shape="311.30,588.61 364.92,832.51"/>
    </edge>
    <edge id="-56" from="55" to="10" priority="-1">
        <lane id="-56_0" index="0" speed="13.89" length="218.95" shape="307.47,1057.43 361.97,845.37"/>
    </edge>
    <edge id="-57" from="18" to="14" priority="-1">
        <lane id="-57_0" index="0" speed="13.89" length="213.20" shape="655.13,227.40 446.99,273.53"/>
    </edge>
    <edge id="-59" from="58" to="14" priority="-1">
        <lane id="-59_0" index="0" speed="13.89" length="227.77" shape="265.02,118.00 435.76,268.76"/>
    </edge>
    <edge id="-61" from="60" to="18" priority="-1">
        <lane id="-61_0" index="0" speed="13.89" length="245.19" shape="781.53,0.73 669.49,218.82"/>
    </edge>
    <edge id="-7" from="6" to="1" priority="-1">
        <lane id="-7_0" index="0" speed="13.89" length="257.74" shape="603.07,1033.07 599.02,775.37"/>
    </edge>
    <edge id="-81" from="80" to="18" priority="-1">
        <lane id="-81_0" index="0" speed="13.89" length="262.39" shape="835.47,434.83 669.68,231.45"/>
    </edge>
    <edge id="-9" from="8" to="1" priority="-1">
        <lane id="-9_0" index="0" speed="13.89" length="259.00" shape="866.61,778.77 607.80,768.95"/>
    </edge>
    <edge id="11" from="1" to="10" priority="-1">
        <lane id="11_0" index="0" speed="13.89" length="230.85" shape="593.06,771.05 372.58,839.47"/>
    </edge>
    <edge id="15" from="2" to="14" priority="-1">
        <lane id="15_0" index="0" speed="13.89" length="213.52" shape="527.17,476.77 440.66,281.56"/>
    </edge>
    <edge id="19" from="2" to="18" priority="-1">
        <lane id="19_0" index="0" speed="13.89" length="272.40" shape="536.41,475.63 659.01,232.39"/>
    </edge>
    <edge id="194" from="24" to="27" priority="-1">
        <lane id="194_0" index="0" speed="13.89" length="206.13" shape="821.48,980.15 1024.90,946.83"/>
    </edge>
    <edge id="195" from="27" to="29" priority="-1">
        <lane id="195_0" index="0" speed="13.89" length="215.84" shape="1036.52,937.44 1105.37,732.88"/>
    </edge>
    <edge id="197" from="29" to="196" priority="-1">
        <lane id="197_0" index="0" speed="13.89" length="219.08" shape="1112.97,719.91 1287.14,587.01"/>
    </edge>
    <edge id="205" from="35" to="204" priority="-1">
        <lane id="205_0" index="0" speed="13.89" length="271.22" shape="300.53,576.10 85.48,410.84"/>
    </edge>
    <edge id="21" from="6" to="20" priority="-1">